
 *ENDDO  INDEX= DOOR                            

     *****  PrintMacroTrace  *****

 Command=*enddo

  Import Data From File c (Format=APDL)

  Export EXPORTMATRIX object to mytemp.mtx (Format=MMF)


 ***** ROUTINE COMPLETED *****  CP =        31.734



 *** NOTE ***                            CP =      31.734   TIME= 12:16:10
 A total of 19 warnings and errors written to M:\Eigene                  
 Dateien\GitHub\NNStatikProjektarbeit\Projektarbeit\Ansys\Environment\19 
 911.err.                                                                


 NUMBER OF DISPLAYED ERRORS ALLOWED PER COMMAND=                  0
 NUMBER OF ERRORS ALLOWED PER COMMAND BEFORE ANSYS ABORT=     10000
 ALL ERRORS WRITTEN TO M:\Eigene Dateien\GitHub\NNStatikProjektarbeit\Projektarbeit\Ansys\Environment\1911.err                                                                                                                                                                             
 DO NOT TERMINATE /INPUT UPON FIRST ERROR

 PROMPT TO INTERRUPT FILE BASED INPUTS (/INPUT AND MACROS) ON THE FIRST ERROR OR AFTER 5 WARNINGS

 *DO LOOP ON PARAMETER= J FROM  1.0000     TO  10.000     BY  1.0000    
  

 *ENDDO  INDEX= J                               
  
  
  
  
  
  
  
  
  
 *** 5.2.2 ANSYS APDL ***

 CLEAR DATABASE AND RERUN START.ANS

 RUN SETUP PROCEDURE FROM FILE= C:\Program Files\ANSYS Inc\v180\ANSYS\apdl\start.ans

 ANSYS Mechanical Enterprise                       

 /INPUT FILE= C:\Program Files\ANSYS Inc\v180\ANSYS\apdl\start.ans  LINE=       0

 PARAMETER XSTART =     0.000000000    

 PARAMETER YSTART =     0.000000000    

 PARAMETER HEIGHT =     8.000000000    

 PARAMETER WIDTH =     8.000000000    

 PARAMETER DOORX =     1.000000000    

 PARAMETER DOORY =     2.000000000    

 PARAMETER WINDW =     1.250000000    

 PARAMETER WINDH =     1.250000000    

 PARAMETER MARGIN =     1.000000000    

 PARAMETER WINDMARGIN =    0.1250000000    

 PARAMETER DOORSTEP =     6.000000000    

 PARAMETER DATA =     0.000000000    

 PARAMETER MESHSIZE =    0.5000000000    

 PARAMETER VERFEIN =     1.000000000    

 PARAMETER STEPS =     1.000000000    

 PARAMETER MAXWSTEP =     13.00000000    

 PARAMETER N =     0.000000000    

 PARAMETER STARTVAL =     0.000000000    

 PARAMETER SIZE =     1.000000000    

 PARAMETER NPARAM =     9.000000000    

 SET PARAMETER DIMENSIONS ON  C TYPE=ARRA  DIMENSIONS=  1000     9     1

 PARAMETER ENOW =     0.000000000    

 *DO LOOP ON PARAMETER= CT FROM  1.0000     TO  1.0000     BY  1.0000    

 *DO LOOP ON PARAMETER= CT2 FROM  1.0000     TO  8.0000     BY  1.0000    

 PARAMETER C(CT,CT2) =     0.000000000    

 *ENDDO  INDEX= CT2                             

 *ENDDO  INDEX= CT                              

 *DO LOOP ON PARAMETER= DOOR FROM  1.0000     TO  1.0000     BY  6.0000    

 *DO LOOP ON PARAMETER= W1 FROM  0.0000     TO  13.000     BY  1.0000    

 *DO LOOP ON PARAMETER= W2 FROM  1.0000     TO  13.000     BY  1.0000    

 PARAMETER N =     1.000000000    

 *** NOTE ***                            CP =      34.656   TIME= 12:17:31
 Write parameters to file= 1911.parm.                                    

 *** NOTE ***                            CP =      34.656   TIME= 12:17:31
 Parameters written.  Lines= 32.                                         

 CLEAR DATABASE AND RERUN START.ANS

 RUN SETUP PROCEDURE FROM FILE= C:\Program Files\ANSYS Inc\v180\ANSYS\apdl\start.ans

 ANSYS Mechanical Enterprise                       

 /INPUT FILE= C:\Program Files\ANSYS Inc\v180\ANSYS\apdl\start.ans  LINE=       0

 *** NOTE ***                            CP =      34.922   TIME= 12:17:32
 Restore ANSYS parameters from file= 1911.parm.                          

 /INPUT FILE= 1911.parm  LINE=       0

 PARAMETER COLW1 =     0.000000000    

 PARAMETER ROWW1 =     0.000000000    

 PARAMETER COLW2 =     1.000000000    

 PARAMETER ROWW2 =     0.000000000    

 *IF  door                              ( =   1.00000     )  LE  
      3                                 ( =   3.00000     )  THEN    

 *IF  w1                                ( =   0.00000     )  GE  
      12                                ( =   12.0000     )  THEN    

 *ENDIF

 *ENDIF

 *IF  door                              ( =   1.00000     )  LE  
      3                                 ( =   3.00000     )  THEN    

 *IF  w2                                ( =   1.00000     )  GE  
      12                                ( =   12.0000     )  THEN    

 *ENDIF

 PARAMETER WIND1X =     1.125000000    

 PARAMETER WIND1Y =     5.625000000    

 PARAMETER WIND2X =     2.625000000    

 PARAMETER WIND2Y =     5.625000000    

          ***** ANSYS ANALYSIS DEFINITION (PREP7) *****

 ENTER  /SHOW,DEVICE-NAME  TO ENABLE GRAPHIC DISPLAY
 ENTER  FINISH             TO LEAVE PREP7
 PRINTOUT KEY SET TO /GOPR (USE /NOPR TO SUPPRESS)

 PARAMETER C(N,1) =     1.000000000    

 PARAMETER C(N,2) =     1.125000000    

 PARAMETER C(N,3) =     5.625000000    

 PARAMETER C(N,4) =     2.625000000    

 PARAMETER C(N,5) =     5.625000000    

 CREATE A RECTANGULAR AREA WITH
 X-DISTANCES FROM      0.000000000     TO      8.000000000    
 Y-DISTANCES FROM      0.000000000     TO      8.000000000    
      OUTPUT AREA =     1

 PLOT AREAS FROM     1  TO     1  BY      1

 CREATE A RECTANGULAR AREA WITH
 X-DISTANCES FROM      1.000000000     TO      2.000000000    
 Y-DISTANCES FROM      0.000000000     TO      2.000000000    
      OUTPUT AREA =     2

 CREATE A RECTANGULAR AREA WITH
 X-DISTANCES FROM      1.125000000     TO      2.375000000    
 Y-DISTANCES FROM      5.625000000     TO      6.875000000    
      OUTPUT AREA =     3

 CREATE A RECTANGULAR AREA WITH
 X-DISTANCES FROM      2.625000000     TO      3.875000000    
 Y-DISTANCES FROM      5.625000000     TO      6.875000000    
      OUTPUT AREA =     4

 SUBTRACT AREAS

      AREA NUMBERS TO BE OPERATED ON =       1
      AREAS OPERATED ON WILL BE DELETED IF POSSIBLE
      AREA NUMBERS TO BE SUBTRACTED  =       2      3      4
      AREAS SUBTRACTED WILL BE DELETED IF POSSIBLE
      OUTPUT AREAS =     5

 ELEMENT TYPE       1 IS PLANE182     2-D 4-NODE PLANE STRS SOLID 
  KEYOPT( 1- 6)=        0      0      0        0      0      0
  KEYOPT( 7-12)=        0      0      0        0      0      0
  KEYOPT(13-18)=        0      0      0        0      0      0

 CURRENT NODAL DOF SET IS  UX    UY  
  TWO-DIMENSIONAL MODEL

 ELEMENT TYPE       1 IS PLANE182     2-D 4-NODE PLANE STRS SOLID 
  KEYOPT( 1- 6)=        0      0      0        0      0      0
  KEYOPT( 7-12)=        0      0      0        0      0      0
  KEYOPT(13-18)=        0      0      0        0      0      0

 CURRENT NODAL DOF SET IS  UX    UY  
  TWO-DIMENSIONAL MODEL

 ELEMENT TYPE       1 IS PLANE182     2-D 4-NODE PLANE STRS SOLID 
  KEYOPT( 1- 6)=        0      0      3        0      0      0
  KEYOPT( 7-12)=        0      0      0        0      0      0
  KEYOPT(13-18)=        0      0      0        0      0      0

 CURRENT NODAL DOF SET IS  UX    UY  
  TWO-DIMENSIONAL MODEL

 ELEMENT TYPE       1 IS PLANE182     2-D 4-NODE PLANE STRS SOLID 
  KEYOPT( 1- 6)=        0      0      3        0      0      0
  KEYOPT( 7-12)=        0      0      0        0      0      0
  KEYOPT(13-18)=        0      0      0        0      0      0

 CURRENT NODAL DOF SET IS  UX    UY  
  TWO-DIMENSIONAL MODEL

 REAL CONSTANT SET       1  ITEMS   1 TO   6
   0.20000       0.0000       0.0000       0.0000       0.0000       0.0000    

 MATERIAL         1     EX   =  0.3000000E+08  

 MATERIAL         1     PRXY =  0.2000000      

 CONSTRAINT AT LINE    17
      LOAD LABELS = UX    UY  
      VALUES =      0.0000         0.0000    

 ALL BOUNDARY CONDITION DISPLAY KEYS SET TO  1

 CONSTRAINT AT LINE    18
      LOAD LABELS = UX    UY  
      VALUES =      0.0000         0.0000    

 SURFACE LOAD ON LINE     3
     LOAD LABEL = PRES
     VALI,  VALJ  =         0.25000E+09         0.25000E+09

 PRES LOAD SURFACE DISPLAY KEY =  1

 DEFAULT ELEMENT DIVISIONS PER LINE BASED ON ELEMENT SIZE =  0.500    

 GENERATE NODES AND ELEMENTS   IN  ALL  SELECTED AREAS    
                                                                         
 ** Meshing of area 5 in progress **                                     
    ** AREA     5 MESHED WITH      222 QUADRILATERALS,        0 TRIANGLES **
 ** Meshing of area 5 completed ** 222 elements.                         

 NUMBER OF AREAS MESHED     =          1
 MAXIMUM NODE NUMBER        =        269
 MAXIMUM ELEMENT NUMBER     =        222

 PRODUCE ELEMENT PLOT IN DSYS =   0

 COUPLE COINCIDENT NODES IN DIRECTION= ALL   TOLERANCE= 0.10000E-03

 *** NOTE ***                            CP =      38.328   TIME= 12:17:36
 Zero nodes were coupled.                                                


 ***** ROUTINE COMPLETED *****  CP =        38.453



 *** NOTE ***                            CP =      38.453   TIME= 12:17:36
 A total of 19 warnings and errors written to M:\Eigene                  
 Dateien\GitHub\NNStatikProjektarbeit\Projektarbeit\Ansys\Environment\19 
 911.err.                                                                

 *****  ANSYS SOLUTION ROUTINE  *****

 *****  ANSYS SOLVE    COMMAND  *****

 TRANSFER SOLID MODEL BOUNDARY CONDITIONS TO FINITE ELEMENT MODEL
      CONSTRAINTS    TRANSFERRED FROM LINES         =     32
      SURFACE LOADS  TRANSFERRED FROM LINES         =     16

 *** NOTE ***                            CP =      38.500   TIME= 12:17:36
 There is no title defined for this analysis.                            

 *** SELECTION OF ELEMENT TECHNOLOGIES FOR APPLICABLE ELEMENTS ***
                ---GIVE SUGGESTIONS ONLY---

 ELEMENT TYPE  1 IS PLANE182 WITH PLANE STRESS OPTION. IT IS ASSOCIATED WITH
 LINEAR MATERIALS ONLY. KEYOPT(1)=2 IS SUGGESTED.



                       S O L U T I O N   O P T I O N S

   PROBLEM DIMENSIONALITY. . . . . . . . . . . . .2-D                  
   DEGREES OF FREEDOM. . . . . . UX   UY  
   ANALYSIS TYPE . . . . . . . . . . . . . . . . .STATIC (STEADY-STATE)
   GLOBALLY ASSEMBLED MATRIX . . . . . . . . . . .SYMMETRIC  

 *** NOTE ***                            CP =      38.500   TIME= 12:17:36
 Present time 0 is less than or equal to the previous time.  Time will   
 default to 1.                                                           

 *** NOTE ***                            CP =      38.500   TIME= 12:17:36
 The conditions for direct assembly have been met.  No .emat or .erot    
 files will be produced.                                                 

                      L O A D   S T E P   O P T I O N S

   LOAD STEP NUMBER. . . . . . . . . . . . . . . .     1
   TIME AT END OF THE LOAD STEP. . . . . . . . . .  1.0000    
   NUMBER OF SUBSTEPS. . . . . . . . . . . . . . .     1
   STEP CHANGE BOUNDARY CONDITIONS . . . . . . . .    NO
   PRINT OUTPUT CONTROLS . . . . . . . . . . . . .NO PRINTOUT
   DATABASE OUTPUT CONTROLS. . . . . . . . . . . .ALL DATA WRITTEN
                                                  FOR THE LAST SUBSTEP


 SOLUTION MONITORING INFO IS WRITTEN TO FILE= 1911.mntr                                                                                                                                                                                                                                                           


 Range of element maximum matrix coefficients in global coordinates
 Maximum = 6045771.34 at element 186.                                    
 Minimum = 2916927.3 at element 149.                                     

   *** ELEMENT MATRIX FORMULATION TIMES
     TYPE    NUMBER   ENAME      TOTAL CP  AVE CP

        1       222  PLANE182      0.000   0.000000
 Time at end of element matrix formulation CP = 38.53125.                

 SPARSE MATRIX DIRECT SOLVER.
  Number of equations =         506,    Maximum wavefront =     18
  Memory allocated for solver              =     0.390 MB
  Memory required for in-core solution     =     0.377 MB
  Memory required for out-of-core solution =     0.257 MB

 *** NOTE ***                            CP =      38.562   TIME= 12:17:36
 The Sparse Matrix Solver is currently running in the in-core memory     
 mode.  This memory mode uses the most amount of memory in order to      
 avoid using the hard drive as much as possible, which most often        
 results in the fastest solution time.  This mode is recommended if      
 enough physical memory is present to accommodate all of the solver      
 data.                                                                   
 curEqn=    506  totEqn=    506 Job CP sec=     38.562
      Factor Done= 100% Factor Wall sec=      0.000 rate=       0.0 Mflops
 Sparse solver maximum pivot= 15797708.1 at node 221 UX.                 
 Sparse solver minimum pivot= 822179.535 at node 234 UX.                 
 Sparse solver minimum pivot in absolute value= 822179.535 at node 234   
 UX.                                                                     

   *** ELEMENT RESULT CALCULATION TIMES
     TYPE    NUMBER   ENAME      TOTAL CP  AVE CP

        1       222  PLANE182      0.062   0.000282

   *** NODAL LOAD CALCULATION TIMES
     TYPE    NUMBER   ENAME      TOTAL CP  AVE CP

        1       222  PLANE182      0.000   0.000000
 *** LOAD STEP     1   SUBSTEP     1  COMPLETED.    CUM ITER =      1
 *** TIME =   1.00000         TIME INC =   1.00000      NEW TRIANG MATRIX

 *** NOTE ***                            CP =      38.625   TIME= 12:17:36
 Solution is done!                                                       


 *** ANSYS BINARY FILE STATISTICS
  BUFFER SIZE USED= 16384
        0.125 MB WRITTEN ON ASSEMBLED MATRIX FILE: 1911.full
        0.500 MB WRITTEN ON RESULTS FILE: 1911.rst

 FINISH SOLUTION PROCESSING


 ***** ROUTINE COMPLETED *****  CP =        38.984



 *** NOTE ***                            CP =      38.984   TIME= 12:17:36
 A total of 19 warnings and errors written to M:\Eigene                  
 Dateien\GitHub\NNStatikProjektarbeit\Projektarbeit\Ansys\Environment\19 
 911.err.                                                                

          ***** ANSYS RESULTS INTERPRETATION (POST1) *****

 ENTER  /SHOW,DEVICE-NAME  TO ENABLE GRAPHIC DISPLAY
 ENTER  FINISH             TO LEAVE POST1

 SELECT ALL ENTITIES OF TYPE= ALL  AND BELOW

 SELECT       FOR ITEM=LOC  COMPONENT=X     BETWEEN  4.0000     AND   4.0000    
   KABS=  0.  TOLERANCE= 0.200000E-01

          3  NODES (OF        269  DEFINED) SELECTED BY  NSEL  COMMAND.

 RESELECT     FOR ITEM=LOC  COMPONENT=Y     BETWEEN  4.0000     AND   4.0000    
   KABS=  0.  TOLERANCE= 0.200000E-01

          0  NODES (OF        269  DEFINED) SELECTED BY  NSEL  COMMAND.

 PARAMETER C(N,6) =    0.7888609052E-30

 *ENDDO  INDEX= W2                              

 EXIT THE ANSYS POST1 DATABASE PROCESSOR


 ***** ROUTINE COMPLETED *****  CP =        39.797



 CLEAR DATABASE AND RERUN START.ANS

 RUN SETUP PROCEDURE FROM FILE= C:\Program Files\ANSYS Inc\v180\ANSYS\apdl\start.ans

 ANSYS Mechanical Enterprise                       

          ***** ANSYS ANALYSIS DEFINITION (PREP7) *****

 ENTER  /SHOW,DEVICE-NAME  TO ENABLE GRAPHIC DISPLAY
 ENTER  FINISH             TO LEAVE PREP7
 PRINTOUT KEY SET TO /GOPR (USE /NOPR TO SUPPRESS)


 ***** ROUTINE COMPLETED *****  CP =        39.938



 *****  ANSYS SOLUTION ROUTINE  *****

 FINISH SOLUTION PROCESSING


 ***** ROUTINE COMPLETED *****  CP =        39.953



 *****  ANSYS SOLUTION ROUTINE  *****

 *****  ANSYS SOLVE    COMMAND  *****

 *** SELECTION OF ELEMENT TECHNOLOGIES FOR APPLICABLE ELEMENTS ***
                ---GIVE SUGGESTIONS ONLY---

 ELEMENT TYPE  1 IS PLANE182 WITH PLANE STRESS OPTION. IT IS ASSOCIATED WITH
 LINEAR MATERIALS ONLY. KEYOPT(1)=2 IS SUGGESTED.



 SOLUTION MONITORING INFO IS WRITTEN TO FILE= 1911.mntr                                                                                                                                                                                                                                                           


 Range of element maximum matrix coefficients in global coordinates
 Maximum = 6008411.98 at element 38.                                     
 Minimum = 2917278.06 at element 129.                                    

   *** ELEMENT MATRIX FORMULATION TIMES
     TYPE    NUMBER   ENAME      TOTAL CP  AVE CP

        1       211  PLANE182      0.062   0.000296
 Time at end of element matrix formulation CP = 40.078125.               

 SPARSE MATRIX DIRECT SOLVER.
  Number of equations =         484,    Maximum wavefront =     16
  Memory allocated for solver              =     0.369 MB
  Memory required for in-core solution     =     0.357 MB
  Memory required for out-of-core solution =     0.249 MB

 *** NOTE ***                            CP =      40.141   TIME= 12:17:39
 The Sparse Matrix Solver is currently running in the in-core memory     
 mode.  This memory mode uses the most amount of memory in order to      
 avoid using the hard drive as much as possible, which most often        
 results in the fastest solution time.  This mode is recommended if      
 enough physical memory is present to accommodate all of the solver      
 data.                                                                   
 curEqn=    484  totEqn=    484 Job CP sec=     40.141
      Factor Done= 100% Factor Wall sec=      0.000 rate=       0.0 Mflops
 Sparse solver maximum pivot= 14436194.9 at node 112 UY.                 
 Sparse solver minimum pivot= 1692068.85 at node 226 UX.                 
 Sparse solver minimum pivot in absolute value= 1692068.85 at node 226   
 UX.                                                                     

   *** ELEMENT RESULT CALCULATION TIMES
     TYPE    NUMBER   ENAME      TOTAL CP  AVE CP

        1       211  PLANE182      0.062   0.000296

   *** NODAL LOAD CALCULATION TIMES
     TYPE    NUMBER   ENAME      TOTAL CP  AVE CP

        1       211  PLANE182      0.000   0.000000
 *** LOAD STEP     1   SUBSTEP     1  COMPLETED.    CUM ITER =      1
 *** TIME =   1.00000         TIME INC =   1.00000      NEW TRIANG MATRIX

 *** NOTE ***                            CP =      40.281   TIME= 12:17:39
 Solution is done!                                                       


 *** ANSYS BINARY FILE STATISTICS
  BUFFER SIZE USED= 16384
        0.125 MB WRITTEN ON ASSEMBLED MATRIX FILE: 1911.full
        0.500 MB WRITTEN ON RESULTS FILE: 1911.rst

 FINISH SOLUTION PROCESSING


 ***** ROUTINE COMPLETED *****  CP =        40.672



          ***** ANSYS RESULTS INTERPRETATION (POST1) *****

 ENTER  /SHOW,DEVICE-NAME  TO ENABLE GRAPHIC DISPLAY
 ENTER  FINISH             TO LEAVE POST1

 EXIT THE ANSYS POST1 DATABASE PROCESSOR


 ***** ROUTINE COMPLETED *****  CP =        40.719



          ***** ANSYS RESULTS INTERPRETATION (POST1) *****

 ENTER  /SHOW,DEVICE-NAME  TO ENABLE GRAPHIC DISPLAY
 ENTER  FINISH             TO LEAVE POST1

 EXIT THE ANSYS POST1 DATABASE PROCESSOR


 ***** ROUTINE COMPLETED *****  CP =        40.766



 CLEAR DATABASE AND RERUN START.ANS

 RUN SETUP PROCEDURE FROM FILE= C:\Program Files\ANSYS Inc\v180\ANSYS\apdl\start.ans

 ANSYS Mechanical Enterprise                       

          ***** ANSYS ANALYSIS DEFINITION (PREP7) *****

 ENTER  /SHOW,DEVICE-NAME  TO ENABLE GRAPHIC DISPLAY
 ENTER  FINISH             TO LEAVE PREP7
 PRINTOUT KEY SET TO /GOPR (USE /NOPR TO SUPPRESS)


 ***** ROUTINE COMPLETED *****  CP =        40.891



 *****  ANSYS SOLUTION ROUTINE  *****

 FINISH SOLUTION PROCESSING


 ***** ROUTINE COMPLETED *****  CP =        40.891



 *****  ANSYS SOLUTION ROUTINE  *****

 *****  ANSYS SOLVE    COMMAND  *****

 *** SELECTION OF ELEMENT TECHNOLOGIES FOR APPLICABLE ELEMENTS ***
                ---GIVE SUGGESTIONS ONLY---

 ELEMENT TYPE  1 IS PLANE182 WITH PLANE STRESS OPTION. IT IS ASSOCIATED WITH
 LINEAR MATERIALS ONLY. KEYOPT(1)=2 IS SUGGESTED.



 SOLUTION MONITORING INFO IS WRITTEN TO FILE= 1911.mntr                                                                                                                                                                                                                                                           


 Range of element maximum matrix coefficients in global coordinates
 Maximum = 6238993.85 at element 53.                                     
 Minimum = 2917287.99 at element 135.                                    

   *** ELEMENT MATRIX FORMULATION TIMES
     TYPE    NUMBER   ENAME      TOTAL CP  AVE CP

        1       214  PLANE182      0.062   0.000292
 Time at end of element matrix formulation CP = 40.984375.               

 SPARSE MATRIX DIRECT SOLVER.
  Number of equations =         490,    Maximum wavefront =     18
  Memory allocated for solver              =     0.382 MB
  Memory required for in-core solution     =     0.369 MB
  Memory required for out-of-core solution =     0.249 MB

 *** NOTE ***                            CP =      41.047   TIME= 12:17:41
 The Sparse Matrix Solver is currently running in the in-core memory     
 mode.  This memory mode uses the most amount of memory in order to      
 avoid using the hard drive as much as possible, which most often        
 results in the fastest solution time.  This mode is recommended if      
 enough physical memory is present to accommodate all of the solver      
 data.                                                                   
 curEqn=    490  totEqn=    490 Job CP sec=     41.047
      Factor Done= 100% Factor Wall sec=      0.000 rate=       0.0 Mflops
 Sparse solver maximum pivot= 13246095.6 at node 137 UY.                 
 Sparse solver minimum pivot= 817293.744 at node 212 UX.                 
 Sparse solver minimum pivot in absolute value= 817293.744 at node 212   
 UX.                                                                     

   *** ELEMENT RESULT CALCULATION TIMES
     TYPE    NUMBER   ENAME      TOTAL CP  AVE CP

        1       214  PLANE182      0.000   0.000000

   *** NODAL LOAD CALCULATION TIMES
     TYPE    NUMBER   ENAME      TOTAL CP  AVE CP

        1       214  PLANE182      0.000   0.000000
 *** LOAD STEP     1   SUBSTEP     1  COMPLETED.    CUM ITER =      1
 *** TIME =   1.00000         TIME INC =   1.00000      NEW TRIANG MATRIX

 *** NOTE ***                            CP =      41.125   TIME= 12:17:41
 Solution is done!                                                       


 *** ANSYS BINARY FILE STATISTICS
  BUFFER SIZE USED= 16384
        0.125 MB WRITTEN ON ASSEMBLED MATRIX FILE: 1911.full
        0.500 MB WRITTEN ON RESULTS FILE: 1911.rst

 FINISH SOLUTION PROCESSING


 ***** ROUTINE COMPLETED *****  CP =        41.516



          ***** ANSYS RESULTS INTERPRETATION (POST1) *****

 ENTER  /SHOW,DEVICE-NAME  TO ENABLE GRAPHIC DISPLAY
 ENTER  FINISH             TO LEAVE POST1

 EXIT THE ANSYS POST1 DATABASE PROCESSOR


 ***** ROUTINE COMPLETED *****  CP =        41.578



          ***** ANSYS RESULTS INTERPRETATION (POST1) *****

 ENTER  /SHOW,DEVICE-NAME  TO ENABLE GRAPHIC DISPLAY
 ENTER  FINISH             TO LEAVE POST1

 EXIT THE ANSYS POST1 DATABASE PROCESSOR


 ***** ROUTINE COMPLETED *****  CP =        41.672



 CLEAR DATABASE AND RERUN START.ANS

 RUN SETUP PROCEDURE FROM FILE= C:\Program Files\ANSYS Inc\v180\ANSYS\apdl\start.ans

 ANSYS Mechanical Enterprise                       

          ***** ANSYS ANALYSIS DEFINITION (PREP7) *****

 ENTER  /SHOW,DEVICE-NAME  TO ENABLE GRAPHIC DISPLAY
 ENTER  FINISH             TO LEAVE PREP7
 PRINTOUT KEY SET TO /GOPR (USE /NOPR TO SUPPRESS)


 ***** ROUTINE COMPLETED *****  CP =        41.812



 *****  ANSYS SOLUTION ROUTINE  *****

 FINISH SOLUTION PROCESSING


 ***** ROUTINE COMPLETED *****  CP =        41.812



 *****  ANSYS SOLUTION ROUTINE  *****

 *****  ANSYS SOLVE    COMMAND  *****

 *** SELECTION OF ELEMENT TECHNOLOGIES FOR APPLICABLE ELEMENTS ***
                ---GIVE SUGGESTIONS ONLY---

 ELEMENT TYPE  1 IS PLANE182 WITH PLANE STRESS OPTION. IT IS ASSOCIATED WITH
 LINEAR MATERIALS ONLY. KEYOPT(1)=2 IS SUGGESTED.



 SOLUTION MONITORING INFO IS WRITTEN TO FILE= 1911.mntr                                                                                                                                                                                                                                                           


 Range of element maximum matrix coefficients in global coordinates
 Maximum = 7136129.03 at element 130.                                    
 Minimum = 2918282.57 at element 163.                                    

   *** ELEMENT MATRIX FORMULATION TIMES
     TYPE    NUMBER   ENAME      TOTAL CP  AVE CP

        1       242  PLANE182      0.062   0.000258
 Time at end of element matrix formulation CP = 41.9375.                 

 SPARSE MATRIX DIRECT SOLVER.
  Number of equations =         546,    Maximum wavefront =     18
  Memory allocated for solver              =     0.431 MB
  Memory required for in-core solution     =     0.416 MB
  Memory required for out-of-core solution =     0.274 MB

 *** NOTE ***                            CP =      42.000   TIME= 12:17:43
 The Sparse Matrix Solver is currently running in the in-core memory     
 mode.  This memory mode uses the most amount of memory in order to      
 avoid using the hard drive as much as possible, which most often        
 results in the fastest solution time.  This mode is recommended if      
 enough physical memory is present to accommodate all of the solver      
 data.                                                                   
 curEqn=    546  totEqn=    546 Job CP sec=     42.000
      Factor Done= 100% Factor Wall sec=      0.000 rate=   19616.7 Mflops
 Sparse solver maximum pivot= 14529214 at node 232 UX.                   
 Sparse solver minimum pivot= 1235222.98 at node 62 UX.                  
 Sparse solver minimum pivot in absolute value= 1235222.98 at node 62    
 UX.                                                                     

   *** ELEMENT RESULT CALCULATION TIMES
     TYPE    NUMBER   ENAME      TOTAL CP  AVE CP

        1       242  PLANE182      0.000   0.000000

   *** NODAL LOAD CALCULATION TIMES
     TYPE    NUMBER   ENAME      TOTAL CP  AVE CP

        1       242  PLANE182      0.000   0.000000
 *** LOAD STEP     1   SUBSTEP     1  COMPLETED.    CUM ITER =      1
 *** TIME =   1.00000         TIME INC =   1.00000      NEW TRIANG MATRIX

 *** NOTE ***                            CP =      42.094   TIME= 12:17:43
 Solution is done!                                                       


 *** ANSYS BINARY FILE STATISTICS
  BUFFER SIZE USED= 16384
        0.125 MB WRITTEN ON ASSEMBLED MATRIX FILE: 1911.full
        0.500 MB WRITTEN ON RESULTS FILE: 1911.rst

 FINISH SOLUTION PROCESSING


 ***** ROUTINE COMPLETED *****  CP =        42.438



          ***** ANSYS RESULTS INTERPRETATION (POST1) *****

 ENTER  /SHOW,DEVICE-NAME  TO ENABLE GRAPHIC DISPLAY
 ENTER  FINISH             TO LEAVE POST1

 EXIT THE ANSYS POST1 DATABASE PROCESSOR


 ***** ROUTINE COMPLETED *****  CP =        42.469



          ***** ANSYS RESULTS INTERPRETATION (POST1) *****

 ENTER  /SHOW,DEVICE-NAME  TO ENABLE GRAPHIC DISPLAY
 ENTER  FINISH             TO LEAVE POST1

 EXIT THE ANSYS POST1 DATABASE PROCESSOR


 ***** ROUTINE COMPLETED *****  CP =        42.531



 CLEAR DATABASE AND RERUN START.ANS

 RUN SETUP PROCEDURE FROM FILE= C:\Program Files\ANSYS Inc\v180\ANSYS\apdl\start.ans

 ANSYS Mechanical Enterprise                       

          ***** ANSYS ANALYSIS DEFINITION (PREP7) *****

 ENTER  /SHOW,DEVICE-NAME  TO ENABLE GRAPHIC DISPLAY
 ENTER  FINISH             TO LEAVE PREP7
 PRINTOUT KEY SET TO /GOPR (USE /NOPR TO SUPPRESS)


 ***** ROUTINE COMPLETED *****  CP =        42.641



 *****  ANSYS SOLUTION ROUTINE  *****

 FINISH SOLUTION PROCESSING


 ***** ROUTINE COMPLETED *****  CP =        42.656



 *****  ANSYS SOLUTION ROUTINE  *****

 *****  ANSYS SOLVE    COMMAND  *****

 *** SELECTION OF ELEMENT TECHNOLOGIES FOR APPLICABLE ELEMENTS ***
                ---GIVE SUGGESTIONS ONLY---

 ELEMENT TYPE  1 IS PLANE182 WITH PLANE STRESS OPTION. IT IS ASSOCIATED WITH
 LINEAR MATERIALS ONLY. KEYOPT(1)=2 IS SUGGESTED.



 SOLUTION MONITORING INFO IS WRITTEN TO FILE= 1911.mntr                                                                                                                                                                                                                                                           


 Range of element maximum matrix coefficients in global coordinates
 Maximum = 8387810.62 at element 128.                                    
 Minimum = 2917025.89 at element 181.                                    

   *** ELEMENT MATRIX FORMULATION TIMES
     TYPE    NUMBER   ENAME      TOTAL CP  AVE CP

        1       256  PLANE182      0.000   0.000000
 Time at end of element matrix formulation CP = 42.921875.               

 SPARSE MATRIX DIRECT SOLVER.
  Number of equations =         574,    Maximum wavefront =     18
  Memory allocated for solver              =     0.458 MB
  Memory required for in-core solution     =     0.442 MB
  Memory required for out-of-core solution =     0.288 MB

 *** NOTE ***                            CP =      42.969   TIME= 12:17:46
 The Sparse Matrix Solver is currently running in the in-core memory     
 mode.  This memory mode uses the most amount of memory in order to      
 avoid using the hard drive as much as possible, which most often        
 results in the fastest solution time.  This mode is recommended if      
 enough physical memory is present to accommodate all of the solver      
 data.                                                                   
 curEqn=    574  totEqn=    574 Job CP sec=     42.969
      Factor Done= 100% Factor Wall sec=      0.000 rate=       0.0 Mflops
 Sparse solver maximum pivot= 15719152.8 at node 288 UX.                 
 Sparse solver minimum pivot= 1981036.15 at node 36 UY.                  
 Sparse solver minimum pivot in absolute value= 1981036.15 at node 36    
 UY.                                                                     

   *** ELEMENT RESULT CALCULATION TIMES
     TYPE    NUMBER   ENAME      TOTAL CP  AVE CP

        1       256  PLANE182      0.000   0.000000

   *** NODAL LOAD CALCULATION TIMES
     TYPE    NUMBER   ENAME      TOTAL CP  AVE CP

        1       256  PLANE182      0.000   0.000000
 *** LOAD STEP     1   SUBSTEP     1  COMPLETED.    CUM ITER =      1
 *** TIME =   1.00000         TIME INC =   1.00000      NEW TRIANG MATRIX

 *** NOTE ***                            CP =      43.078   TIME= 12:17:46
 Solution is done!                                                       


 *** ANSYS BINARY FILE STATISTICS
  BUFFER SIZE USED= 16384
        0.125 MB WRITTEN ON ASSEMBLED MATRIX FILE: 1911.full
        0.500 MB WRITTEN ON RESULTS FILE: 1911.rst

 FINISH SOLUTION PROCESSING


 ***** ROUTINE COMPLETED *****  CP =        43.547



          ***** ANSYS RESULTS INTERPRETATION (POST1) *****

 ENTER  /SHOW,DEVICE-NAME  TO ENABLE GRAPHIC DISPLAY
 ENTER  FINISH             TO LEAVE POST1

 EXIT THE ANSYS POST1 DATABASE PROCESSOR


 ***** ROUTINE COMPLETED *****  CP =        43.594



          ***** ANSYS RESULTS INTERPRETATION (POST1) *****

 ENTER  /SHOW,DEVICE-NAME  TO ENABLE GRAPHIC DISPLAY
 ENTER  FINISH             TO LEAVE POST1

 EXIT THE ANSYS POST1 DATABASE PROCESSOR


 ***** ROUTINE COMPLETED *****  CP =        43.672



 CLEAR DATABASE AND RERUN START.ANS

 RUN SETUP PROCEDURE FROM FILE= C:\Program Files\ANSYS Inc\v180\ANSYS\apdl\start.ans

 ANSYS Mechanical Enterprise                       

          ***** ANSYS ANALYSIS DEFINITION (PREP7) *****

 ENTER  /SHOW,DEVICE-NAME  TO ENABLE GRAPHIC DISPLAY
 ENTER  FINISH             TO LEAVE PREP7
 PRINTOUT KEY SET TO /GOPR (USE /NOPR TO SUPPRESS)


 ***** ROUTINE COMPLETED *****  CP =        43.812



 *****  ANSYS SOLUTION ROUTINE  *****

 FINISH SOLUTION PROCESSING


 ***** ROUTINE COMPLETED *****  CP =        43.812



 *****  ANSYS SOLUTION ROUTINE  *****

 *****  ANSYS SOLVE    COMMAND  *****

 *** SELECTION OF ELEMENT TECHNOLOGIES FOR APPLICABLE ELEMENTS ***
                ---GIVE SUGGESTIONS ONLY---

 ELEMENT TYPE  1 IS PLANE182 WITH PLANE STRESS OPTION. IT IS ASSOCIATED WITH
 LINEAR MATERIALS ONLY. KEYOPT(1)=2 IS SUGGESTED.



 SOLUTION MONITORING INFO IS WRITTEN TO FILE= 1911.mntr                                                                                                                                                                                                                                                           


 Range of element maximum matrix coefficients in global coordinates
 Maximum = 6847879.22 at element 41.                                     
 Minimum = 2917356.88 at element 159.                                    

   *** ELEMENT MATRIX FORMULATION TIMES
     TYPE    NUMBER   ENAME      TOTAL CP  AVE CP

        1       235  PLANE182      0.000   0.000000
 Time at end of element matrix formulation CP = 43.890625.               

 SPARSE MATRIX DIRECT SOLVER.
  Number of equations =         530,    Maximum wavefront =     16
  Memory allocated for solver              =     0.412 MB
  Memory required for in-core solution     =     0.398 MB
  Memory required for out-of-core solution =     0.269 MB

 *** NOTE ***                            CP =      43.953   TIME= 12:17:48
 The Sparse Matrix Solver is currently running in the in-core memory     
 mode.  This memory mode uses the most amount of memory in order to      
 avoid using the hard drive as much as possible, which most often        
 results in the fastest solution time.  This mode is recommended if      
 enough physical memory is present to accommodate all of the solver      
 data.                                                                   
 curEqn=    530  totEqn=    530 Job CP sec=     43.953
      Factor Done= 100% Factor Wall sec=      0.000 rate=       0.0 Mflops
 Sparse solver maximum pivot= 14614525.3 at node 177 UY.                 
 Sparse solver minimum pivot= 1121247.64 at node 86 UX.                  
 Sparse solver minimum pivot in absolute value= 1121247.64 at node 86    
 UX.                                                                     

   *** ELEMENT RESULT CALCULATION TIMES
     TYPE    NUMBER   ENAME      TOTAL CP  AVE CP

        1       235  PLANE182      0.062   0.000266

   *** NODAL LOAD CALCULATION TIMES
     TYPE    NUMBER   ENAME      TOTAL CP  AVE CP

        1       235  PLANE182      0.000   0.000000
 *** LOAD STEP     1   SUBSTEP     1  COMPLETED.    CUM ITER =      1
 *** TIME =   1.00000         TIME INC =   1.00000      NEW TRIANG MATRIX

 *** NOTE ***                            CP =      44.062   TIME= 12:17:48
 Solution is done!                                                       


 *** ANSYS BINARY FILE STATISTICS
  BUFFER SIZE USED= 16384
        0.125 MB WRITTEN ON ASSEMBLED MATRIX FILE: 1911.full
        0.500 MB WRITTEN ON RESULTS FILE: 1911.rst

 FINISH SOLUTION PROCESSING


 ***** ROUTINE COMPLETED *****  CP =        44.516



          ***** ANSYS RESULTS INTERPRETATION (POST1) *****

 ENTER  /SHOW,DEVICE-NAME  TO ENABLE GRAPHIC DISPLAY
 ENTER  FINISH             TO LEAVE POST1

 EXIT THE ANSYS POST1 DATABASE PROCESSOR


 ***** ROUTINE COMPLETED *****  CP =        44.609



          ***** ANSYS RESULTS INTERPRETATION (POST1) *****

 ENTER  /SHOW,DEVICE-NAME  TO ENABLE GRAPHIC DISPLAY
 ENTER  FINISH             TO LEAVE POST1

 EXIT THE ANSYS POST1 DATABASE PROCESSOR


 ***** ROUTINE COMPLETED *****  CP =        44.656



 CLEAR DATABASE AND RERUN START.ANS

 RUN SETUP PROCEDURE FROM FILE= C:\Program Files\ANSYS Inc\v180\ANSYS\apdl\start.ans

 ANSYS Mechanical Enterprise                       

          ***** ANSYS ANALYSIS DEFINITION (PREP7) *****

 ENTER  /SHOW,DEVICE-NAME  TO ENABLE GRAPHIC DISPLAY
 ENTER  FINISH             TO LEAVE PREP7
 PRINTOUT KEY SET TO /GOPR (USE /NOPR TO SUPPRESS)


 ***** ROUTINE COMPLETED *****  CP =        44.781



 *****  ANSYS SOLUTION ROUTINE  *****

 FINISH SOLUTION PROCESSING


 ***** ROUTINE COMPLETED *****  CP =        44.781



 *****  ANSYS SOLUTION ROUTINE  *****

 *****  ANSYS SOLVE    COMMAND  *****

 *** SELECTION OF ELEMENT TECHNOLOGIES FOR APPLICABLE ELEMENTS ***
                ---GIVE SUGGESTIONS ONLY---

 ELEMENT TYPE  1 IS PLANE182 WITH PLANE STRESS OPTION. IT IS ASSOCIATED WITH
 LINEAR MATERIALS ONLY. KEYOPT(1)=2 IS SUGGESTED.



 SOLUTION MONITORING INFO IS WRITTEN TO FILE= 1911.mntr                                                                                                                                                                                                                                                           


 Range of element maximum matrix coefficients in global coordinates
 Maximum = 5614432.38 at element 114.                                    
 Minimum = 2917386.75 at element 132.                                    

   *** ELEMENT MATRIX FORMULATION TIMES
     TYPE    NUMBER   ENAME      TOTAL CP  AVE CP

        1       210  PLANE182      0.062   0.000298
 Time at end of element matrix formulation CP = 44.953125.               

 SPARSE MATRIX DIRECT SOLVER.
  Number of equations =         482,    Maximum wavefront =     18
  Memory allocated for solver              =     0.367 MB
  Memory required for in-core solution     =     0.355 MB
  Memory required for out-of-core solution =     0.247 MB

 *** NOTE ***                            CP =      45.016   TIME= 12:17:51
 The Sparse Matrix Solver is currently running in the in-core memory     
 mode.  This memory mode uses the most amount of memory in order to      
 avoid using the hard drive as much as possible, which most often        
 results in the fastest solution time.  This mode is recommended if      
 enough physical memory is present to accommodate all of the solver      
 data.                                                                   
 curEqn=    482  totEqn=    482 Job CP sec=     45.016
      Factor Done= 100% Factor Wall sec=      0.000 rate=       0.0 Mflops
 Sparse solver maximum pivot= 13829081.4 at node 167 UX.                 
 Sparse solver minimum pivot= 1483159.16 at node 196 UX.                 
 Sparse solver minimum pivot in absolute value= 1483159.16 at node 196   
 UX.                                                                     

   *** ELEMENT RESULT CALCULATION TIMES
     TYPE    NUMBER   ENAME      TOTAL CP  AVE CP

        1       210  PLANE182      0.000   0.000000

   *** NODAL LOAD CALCULATION TIMES
     TYPE    NUMBER   ENAME      TOTAL CP  AVE CP

        1       210  PLANE182      0.000   0.000000
 *** LOAD STEP     1   SUBSTEP     1  COMPLETED.    CUM ITER =      1
 *** TIME =   1.00000         TIME INC =   1.00000      NEW TRIANG MATRIX

 *** NOTE ***                            CP =      45.109   TIME= 12:17:51
 Solution is done!                                                       


 *** ANSYS BINARY FILE STATISTICS
  BUFFER SIZE USED= 16384
        0.125 MB WRITTEN ON ASSEMBLED MATRIX FILE: 1911.full
        0.500 MB WRITTEN ON RESULTS FILE: 1911.rst

 FINISH SOLUTION PROCESSING


 ***** ROUTINE COMPLETED *****  CP =        45.469



          ***** ANSYS RESULTS INTERPRETATION (POST1) *****

 ENTER  /SHOW,DEVICE-NAME  TO ENABLE GRAPHIC DISPLAY
 ENTER  FINISH             TO LEAVE POST1

 EXIT THE ANSYS POST1 DATABASE PROCESSOR


 ***** ROUTINE COMPLETED *****  CP =        45.531



          ***** ANSYS RESULTS INTERPRETATION (POST1) *****

 ENTER  /SHOW,DEVICE-NAME  TO ENABLE GRAPHIC DISPLAY
 ENTER  FINISH             TO LEAVE POST1

 EXIT THE ANSYS POST1 DATABASE PROCESSOR


 ***** ROUTINE COMPLETED *****  CP =        45.641



 CLEAR DATABASE AND RERUN START.ANS

 RUN SETUP PROCEDURE FROM FILE= C:\Program Files\ANSYS Inc\v180\ANSYS\apdl\start.ans

 ANSYS Mechanical Enterprise                       

          ***** ANSYS ANALYSIS DEFINITION (PREP7) *****

 ENTER  /SHOW,DEVICE-NAME  TO ENABLE GRAPHIC DISPLAY
 ENTER  FINISH             TO LEAVE PREP7
 PRINTOUT KEY SET TO /GOPR (USE /NOPR TO SUPPRESS)


 ***** ROUTINE COMPLETED *****  CP =        45.766



 *****  ANSYS SOLUTION ROUTINE  *****

 FINISH SOLUTION PROCESSING


 ***** ROUTINE COMPLETED *****  CP =        45.766



 *****  ANSYS SOLUTION ROUTINE  *****

 *****  ANSYS SOLVE    COMMAND  *****

 *** SELECTION OF ELEMENT TECHNOLOGIES FOR APPLICABLE ELEMENTS ***
                ---GIVE SUGGESTIONS ONLY---

 ELEMENT TYPE  1 IS PLANE182 WITH PLANE STRESS OPTION. IT IS ASSOCIATED WITH
 LINEAR MATERIALS ONLY. KEYOPT(1)=2 IS SUGGESTED.



 SOLUTION MONITORING INFO IS WRITTEN TO FILE= 1911.mntr                                                                                                                                                                                                                                                           


 Range of element maximum matrix coefficients in global coordinates
 Maximum = 3896285.33 at element 99.                                     
 Minimum = 2925895.25 at element 138.                                    

   *** ELEMENT MATRIX FORMULATION TIMES
     TYPE    NUMBER   ENAME      TOTAL CP  AVE CP

        1       230  PLANE182      0.000   0.000000
 Time at end of element matrix formulation CP = 45.859375.               

 SPARSE MATRIX DIRECT SOLVER.
  Number of equations =         522,    Maximum wavefront =     16
  Memory allocated for solver              =     0.416 MB
  Memory required for in-core solution     =     0.402 MB
  Memory required for out-of-core solution =     0.262 MB

 *** NOTE ***                            CP =      45.891   TIME= 12:17:53
 The Sparse Matrix Solver is currently running in the in-core memory     
 mode.  This memory mode uses the most amount of memory in order to      
 avoid using the hard drive as much as possible, which most often        
 results in the fastest solution time.  This mode is recommended if      
 enough physical memory is present to accommodate all of the solver      
 data.                                                                   
 curEqn=    522  totEqn=    522 Job CP sec=     45.891
      Factor Done= 100% Factor Wall sec=      0.000 rate=       0.0 Mflops
 Sparse solver maximum pivot= 12583888.8 at node 231 UX.                 
 Sparse solver minimum pivot= 2065899.71 at node 53 UX.                  
 Sparse solver minimum pivot in absolute value= 2065899.71 at node 53    
 UX.                                                                     

   *** ELEMENT RESULT CALCULATION TIMES
     TYPE    NUMBER   ENAME      TOTAL CP  AVE CP

        1       230  PLANE182      0.062   0.000272

   *** NODAL LOAD CALCULATION TIMES
     TYPE    NUMBER   ENAME      TOTAL CP  AVE CP

        1       230  PLANE182      0.000   0.000000
 *** LOAD STEP     1   SUBSTEP     1  COMPLETED.    CUM ITER =      1
 *** TIME =   1.00000         TIME INC =   1.00000      NEW TRIANG MATRIX

 *** NOTE ***                            CP =      46.016   TIME= 12:17:53
 Solution is done!                                                       


 *** ANSYS BINARY FILE STATISTICS
  BUFFER SIZE USED= 16384
        0.125 MB WRITTEN ON ASSEMBLED MATRIX FILE: 1911.full
        0.500 MB WRITTEN ON RESULTS FILE: 1911.rst

 FINISH SOLUTION PROCESSING


 ***** ROUTINE COMPLETED *****  CP =        46.375



          ***** ANSYS RESULTS INTERPRETATION (POST1) *****

 ENTER  /SHOW,DEVICE-NAME  TO ENABLE GRAPHIC DISPLAY
 ENTER  FINISH             TO LEAVE POST1

 EXIT THE ANSYS POST1 DATABASE PROCESSOR


 ***** ROUTINE COMPLETED *****  CP =        46.422



          ***** ANSYS RESULTS INTERPRETATION (POST1) *****

 ENTER  /SHOW,DEVICE-NAME  TO ENABLE GRAPHIC DISPLAY
 ENTER  FINISH             TO LEAVE POST1

 EXIT THE ANSYS POST1 DATABASE PROCESSOR


 ***** ROUTINE COMPLETED *****  CP =        46.516



 CLEAR DATABASE AND RERUN START.ANS

 RUN SETUP PROCEDURE FROM FILE= C:\Program Files\ANSYS Inc\v180\ANSYS\apdl\start.ans

 ANSYS Mechanical Enterprise                       

          ***** ANSYS ANALYSIS DEFINITION (PREP7) *****

 ENTER  /SHOW,DEVICE-NAME  TO ENABLE GRAPHIC DISPLAY
 ENTER  FINISH             TO LEAVE PREP7
 PRINTOUT KEY SET TO /GOPR (USE /NOPR TO SUPPRESS)


 ***** ROUTINE COMPLETED *****  CP =        46.656



 *****  ANSYS SOLUTION ROUTINE  *****

 FINISH SOLUTION PROCESSING


 ***** ROUTINE COMPLETED *****  CP =        46.656



 *****  ANSYS SOLUTION ROUTINE  *****

 *****  ANSYS SOLVE    COMMAND  *****

 *** SELECTION OF ELEMENT TECHNOLOGIES FOR APPLICABLE ELEMENTS ***
                ---GIVE SUGGESTIONS ONLY---

 ELEMENT TYPE  1 IS PLANE182 WITH PLANE STRESS OPTION. IT IS ASSOCIATED WITH
 LINEAR MATERIALS ONLY. KEYOPT(1)=2 IS SUGGESTED.



 SOLUTION MONITORING INFO IS WRITTEN TO FILE= 1911.mntr                                                                                                                                                                                                                                                           


 Range of element maximum matrix coefficients in global coordinates
 Maximum = 5543198.24 at element 5.                                      
 Minimum = 2917165.54 at element 161.                                    

   *** ELEMENT MATRIX FORMULATION TIMES
     TYPE    NUMBER   ENAME      TOTAL CP  AVE CP

        1       236  PLANE182      0.062   0.000265
 Time at end of element matrix formulation CP = 46.703125.               

 SPARSE MATRIX DIRECT SOLVER.
  Number of equations =         534,    Maximum wavefront =     18
  Memory allocated for solver              =     0.420 MB
  Memory required for in-core solution     =     0.406 MB
  Memory required for out-of-core solution =     0.270 MB

 *** NOTE ***                            CP =      46.766   TIME= 12:17:56
 The Sparse Matrix Solver is currently running in the in-core memory     
 mode.  This memory mode uses the most amount of memory in order to      
 avoid using the hard drive as much as possible, which most often        
 results in the fastest solution time.  This mode is recommended if      
 enough physical memory is present to accommodate all of the solver      
 data.                                                                   
 curEqn=    534  totEqn=    534 Job CP sec=     46.766
      Factor Done= 100% Factor Wall sec=      0.000 rate=       0.0 Mflops
 Sparse solver maximum pivot= 12606267 at node 134 UY.                   
 Sparse solver minimum pivot= 1936467.66 at node 260 UX.                 
 Sparse solver minimum pivot in absolute value= 1936467.66 at node 260   
 UX.                                                                     

   *** ELEMENT RESULT CALCULATION TIMES
     TYPE    NUMBER   ENAME      TOTAL CP  AVE CP

        1       236  PLANE182      0.000   0.000000

   *** NODAL LOAD CALCULATION TIMES
     TYPE    NUMBER   ENAME      TOTAL CP  AVE CP

        1       236  PLANE182      0.000   0.000000
 *** LOAD STEP     1   SUBSTEP     1  COMPLETED.    CUM ITER =      1
 *** TIME =   1.00000         TIME INC =   1.00000      NEW TRIANG MATRIX

 *** NOTE ***                            CP =      46.844   TIME= 12:17:56
 Solution is done!                                                       


 *** ANSYS BINARY FILE STATISTICS
  BUFFER SIZE USED= 16384
        0.125 MB WRITTEN ON ASSEMBLED MATRIX FILE: 1911.full
        0.500 MB WRITTEN ON RESULTS FILE: 1911.rst

 FINISH SOLUTION PROCESSING


 ***** ROUTINE COMPLETED *****  CP =        47.219



          ***** ANSYS RESULTS INTERPRETATION (POST1) *****

 ENTER  /SHOW,DEVICE-NAME  TO ENABLE GRAPHIC DISPLAY
 ENTER  FINISH             TO LEAVE POST1

 EXIT THE ANSYS POST1 DATABASE PROCESSOR


 ***** ROUTINE COMPLETED *****  CP =        47.312



          ***** ANSYS RESULTS INTERPRETATION (POST1) *****

 ENTER  /SHOW,DEVICE-NAME  TO ENABLE GRAPHIC DISPLAY
 ENTER  FINISH             TO LEAVE POST1

 EXIT THE ANSYS POST1 DATABASE PROCESSOR


 ***** ROUTINE COMPLETED *****  CP =        47.391



 CLEAR DATABASE AND RERUN START.ANS

 RUN SETUP PROCEDURE FROM FILE= C:\Program Files\ANSYS Inc\v180\ANSYS\apdl\start.ans

 ANSYS Mechanical Enterprise                       

          ***** ANSYS ANALYSIS DEFINITION (PREP7) *****

 ENTER  /SHOW,DEVICE-NAME  TO ENABLE GRAPHIC DISPLAY
 ENTER  FINISH             TO LEAVE PREP7
 PRINTOUT KEY SET TO /GOPR (USE /NOPR TO SUPPRESS)


 ***** ROUTINE COMPLETED *****  CP =        47.516



 *****  ANSYS SOLUTION ROUTINE  *****

 FINISH SOLUTION PROCESSING


 ***** ROUTINE COMPLETED *****  CP =        47.516



 *****  ANSYS SOLUTION ROUTINE  *****

 *****  ANSYS SOLVE    COMMAND  *****

 *** SELECTION OF ELEMENT TECHNOLOGIES FOR APPLICABLE ELEMENTS ***
                ---GIVE SUGGESTIONS ONLY---

 ELEMENT TYPE  1 IS PLANE182 WITH PLANE STRESS OPTION. IT IS ASSOCIATED WITH
 LINEAR MATERIALS ONLY. KEYOPT(1)=2 IS SUGGESTED.



 SOLUTION MONITORING INFO IS WRITTEN TO FILE= 1911.mntr                                                                                                                                                                                                                                                           


 Range of element maximum matrix coefficients in global coordinates
 Maximum = 5821294.34 at element 11.                                     
 Minimum = 2917370.31 at element 169.                                    

   *** ELEMENT MATRIX FORMULATION TIMES
     TYPE    NUMBER   ENAME      TOTAL CP  AVE CP

        1       245  PLANE182      0.000   0.000000
 Time at end of element matrix formulation CP = 47.59375.                

 SPARSE MATRIX DIRECT SOLVER.
  Number of equations =         552,    Maximum wavefront =     18
  Memory allocated for solver              =     0.432 MB
  Memory required for in-core solution     =     0.418 MB
  Memory required for out-of-core solution =     0.276 MB

 *** NOTE ***                            CP =      47.672   TIME= 12:17:59
 The Sparse Matrix Solver is currently running in the in-core memory     
 mode.  This memory mode uses the most amount of memory in order to      
 avoid using the hard drive as much as possible, which most often        
 results in the fastest solution time.  This mode is recommended if      
 enough physical memory is present to accommodate all of the solver      
 data.                                                                   
 curEqn=    552  totEqn=    552 Job CP sec=     47.672
      Factor Done= 100% Factor Wall sec=      0.000 rate=       0.0 Mflops
 Sparse solver maximum pivot= 14016534.7 at node 110 UX.                 
 Sparse solver minimum pivot= 2308652.79 at node 62 UY.                  
 Sparse solver minimum pivot in absolute value= 2308652.79 at node 62    
 UY.                                                                     

   *** ELEMENT RESULT CALCULATION TIMES
     TYPE    NUMBER   ENAME      TOTAL CP  AVE CP

        1       245  PLANE182      0.000   0.000000

   *** NODAL LOAD CALCULATION TIMES
     TYPE    NUMBER   ENAME      TOTAL CP  AVE CP

        1       245  PLANE182      0.000   0.000000
 *** LOAD STEP     1   SUBSTEP     1  COMPLETED.    CUM ITER =      1
 *** TIME =   1.00000         TIME INC =   1.00000      NEW TRIANG MATRIX

 *** NOTE ***                            CP =      47.766   TIME= 12:17:59
 Solution is done!                                                       


 *** ANSYS BINARY FILE STATISTICS
  BUFFER SIZE USED= 16384
        0.125 MB WRITTEN ON ASSEMBLED MATRIX FILE: 1911.full
        0.500 MB WRITTEN ON RESULTS FILE: 1911.rst

 FINISH SOLUTION PROCESSING


 ***** ROUTINE COMPLETED *****  CP =        48.234



          ***** ANSYS RESULTS INTERPRETATION (POST1) *****

 ENTER  /SHOW,DEVICE-NAME  TO ENABLE GRAPHIC DISPLAY
 ENTER  FINISH             TO LEAVE POST1

 EXIT THE ANSYS POST1 DATABASE PROCESSOR


 ***** ROUTINE COMPLETED *****  CP =        48.281



          ***** ANSYS RESULTS INTERPRETATION (POST1) *****

 ENTER  /SHOW,DEVICE-NAME  TO ENABLE GRAPHIC DISPLAY
 ENTER  FINISH             TO LEAVE POST1

 EXIT THE ANSYS POST1 DATABASE PROCESSOR


 ***** ROUTINE COMPLETED *****  CP =        48.328



 CLEAR DATABASE AND RERUN START.ANS

 RUN SETUP PROCEDURE FROM FILE= C:\Program Files\ANSYS Inc\v180\ANSYS\apdl\start.ans

 ANSYS Mechanical Enterprise                       

          ***** ANSYS ANALYSIS DEFINITION (PREP7) *****

 ENTER  /SHOW,DEVICE-NAME  TO ENABLE GRAPHIC DISPLAY
 ENTER  FINISH             TO LEAVE PREP7
 PRINTOUT KEY SET TO /GOPR (USE /NOPR TO SUPPRESS)


 ***** ROUTINE COMPLETED *****  CP =        48.453



 *****  ANSYS SOLUTION ROUTINE  *****

 FINISH SOLUTION PROCESSING


 ***** ROUTINE COMPLETED *****  CP =        48.453



 *****  ANSYS SOLUTION ROUTINE  *****

 *****  ANSYS SOLVE    COMMAND  *****

 *** SELECTION OF ELEMENT TECHNOLOGIES FOR APPLICABLE ELEMENTS ***
                ---GIVE SUGGESTIONS ONLY---

 ELEMENT TYPE  1 IS PLANE182 WITH PLANE STRESS OPTION. IT IS ASSOCIATED WITH
 LINEAR MATERIALS ONLY. KEYOPT(1)=2 IS SUGGESTED.



 SOLUTION MONITORING INFO IS WRITTEN TO FILE= 1911.mntr                                                                                                                                                                                                                                                           


 Range of element maximum matrix coefficients in global coordinates
 Maximum = 5454987.27 at element 64.                                     
 Minimum = 2917391.26 at element 151.                                    

   *** ELEMENT MATRIX FORMULATION TIMES
     TYPE    NUMBER   ENAME      TOTAL CP  AVE CP

        1       229  PLANE182      0.000   0.000000
 Time at end of element matrix formulation CP = 48.5625.                 

 SPARSE MATRIX DIRECT SOLVER.
  Number of equations =         520,    Maximum wavefront =     18
  Memory allocated for solver              =     0.407 MB
  Memory required for in-core solution     =     0.393 MB
  Memory required for out-of-core solution =     0.260 MB

 *** NOTE ***                            CP =      48.625   TIME= 12:18:02
 The Sparse Matrix Solver is currently running in the in-core memory     
 mode.  This memory mode uses the most amount of memory in order to      
 avoid using the hard drive as much as possible, which most often        
 results in the fastest solution time.  This mode is recommended if      
 enough physical memory is present to accommodate all of the solver      
 data.                                                                   
 curEqn=    520  totEqn=    520 Job CP sec=     48.625
      Factor Done= 100% Factor Wall sec=      0.000 rate=       0.0 Mflops
 Sparse solver maximum pivot= 13710904.7 at node 103 UY.                 
 Sparse solver minimum pivot= 859190.328 at node 46 UX.                  
 Sparse solver minimum pivot in absolute value= 859190.328 at node 46    
 UX.                                                                     

   *** ELEMENT RESULT CALCULATION TIMES
     TYPE    NUMBER   ENAME      TOTAL CP  AVE CP

        1       229  PLANE182      0.000   0.000000

   *** NODAL LOAD CALCULATION TIMES
     TYPE    NUMBER   ENAME      TOTAL CP  AVE CP

        1       229  PLANE182      0.000   0.000000
 *** LOAD STEP     1   SUBSTEP     1  COMPLETED.    CUM ITER =      1
 *** TIME =   1.00000         TIME INC =   1.00000      NEW TRIANG MATRIX

 *** NOTE ***                            CP =      48.719   TIME= 12:18:02
 Solution is done!                                                       


 *** ANSYS BINARY FILE STATISTICS
  BUFFER SIZE USED= 16384
        0.125 MB WRITTEN ON ASSEMBLED MATRIX FILE: 1911.full
        0.500 MB WRITTEN ON RESULTS FILE: 1911.rst

 FINISH SOLUTION PROCESSING


 ***** ROUTINE COMPLETED *****  CP =        49.188



          ***** ANSYS RESULTS INTERPRETATION (POST1) *****

 ENTER  /SHOW,DEVICE-NAME  TO ENABLE GRAPHIC DISPLAY
 ENTER  FINISH             TO LEAVE POST1

 EXIT THE ANSYS POST1 DATABASE PROCESSOR


 ***** ROUTINE COMPLETED *****  CP =        49.250



          ***** ANSYS RESULTS INTERPRETATION (POST1) *****

 ENTER  /SHOW,DEVICE-NAME  TO ENABLE GRAPHIC DISPLAY
 ENTER  FINISH             TO LEAVE POST1

 EXIT THE ANSYS POST1 DATABASE PROCESSOR


 ***** ROUTINE COMPLETED *****  CP =        49.312



 CLEAR DATABASE AND RERUN START.ANS

 RUN SETUP PROCEDURE FROM FILE= C:\Program Files\ANSYS Inc\v180\ANSYS\apdl\start.ans

 ANSYS Mechanical Enterprise                       

          ***** ANSYS ANALYSIS DEFINITION (PREP7) *****

 ENTER  /SHOW,DEVICE-NAME  TO ENABLE GRAPHIC DISPLAY
 ENTER  FINISH             TO LEAVE PREP7
 PRINTOUT KEY SET TO /GOPR (USE /NOPR TO SUPPRESS)


 ***** ROUTINE COMPLETED *****  CP =        49.453



 *****  ANSYS SOLUTION ROUTINE  *****

 FINISH SOLUTION PROCESSING


 ***** ROUTINE COMPLETED *****  CP =        49.453



 *****  ANSYS SOLUTION ROUTINE  *****

 *****  ANSYS SOLVE    COMMAND  *****

 *** SELECTION OF ELEMENT TECHNOLOGIES FOR APPLICABLE ELEMENTS ***
                ---GIVE SUGGESTIONS ONLY---

 ELEMENT TYPE  1 IS PLANE182 WITH PLANE STRESS OPTION. IT IS ASSOCIATED WITH
 LINEAR MATERIALS ONLY. KEYOPT(1)=2 IS SUGGESTED.



 SOLUTION MONITORING INFO IS WRITTEN TO FILE= 1911.mntr                                                                                                                                                                                                                                                           


 Range of element maximum matrix coefficients in global coordinates
 Maximum = 7387231.19 at element 2.                                      
 Minimum = 2917363.2 at element 142.                                     

   *** ELEMENT MATRIX FORMULATION TIMES
     TYPE    NUMBER   ENAME      TOTAL CP  AVE CP

        1       220  PLANE182      0.000   0.000000
 Time at end of element matrix formulation CP = 49.5.                    

 SPARSE MATRIX DIRECT SOLVER.
  Number of equations =         502,    Maximum wavefront =     18
  Memory allocated for solver              =     0.390 MB
  Memory required for in-core solution     =     0.377 MB
  Memory required for out-of-core solution =     0.255 MB

 *** NOTE ***                            CP =      49.578   TIME= 12:18:04
 The Sparse Matrix Solver is currently running in the in-core memory     
 mode.  This memory mode uses the most amount of memory in order to      
 avoid using the hard drive as much as possible, which most often        
 results in the fastest solution time.  This mode is recommended if      
 enough physical memory is present to accommodate all of the solver      
 data.                                                                   
 curEqn=    502  totEqn=    502 Job CP sec=     49.578
      Factor Done= 100% Factor Wall sec=      0.000 rate=       0.0 Mflops
 Sparse solver maximum pivot= 16971894.9 at node 97 UX.                  
 Sparse solver minimum pivot= 1518052.34 at node 48 UX.                  
 Sparse solver minimum pivot in absolute value= 1518052.34 at node 48    
 UX.                                                                     

   *** ELEMENT RESULT CALCULATION TIMES
     TYPE    NUMBER   ENAME      TOTAL CP  AVE CP

        1       220  PLANE182      0.062   0.000284

   *** NODAL LOAD CALCULATION TIMES
     TYPE    NUMBER   ENAME      TOTAL CP  AVE CP

        1       220  PLANE182      0.000   0.000000
 *** LOAD STEP     1   SUBSTEP     1  COMPLETED.    CUM ITER =      1
 *** TIME =   1.00000         TIME INC =   1.00000      NEW TRIANG MATRIX

 *** NOTE ***                            CP =      49.672   TIME= 12:18:04
 Solution is done!                                                       


 *** ANSYS BINARY FILE STATISTICS
  BUFFER SIZE USED= 16384
        0.125 MB WRITTEN ON ASSEMBLED MATRIX FILE: 1911.full
        0.500 MB WRITTEN ON RESULTS FILE: 1911.rst

 FINISH SOLUTION PROCESSING


 ***** ROUTINE COMPLETED *****  CP =        50.031



          ***** ANSYS RESULTS INTERPRETATION (POST1) *****

 ENTER  /SHOW,DEVICE-NAME  TO ENABLE GRAPHIC DISPLAY
 ENTER  FINISH             TO LEAVE POST1

 EXIT THE ANSYS POST1 DATABASE PROCESSOR


 ***** ROUTINE COMPLETED *****  CP =        50.062



          ***** ANSYS RESULTS INTERPRETATION (POST1) *****

 ENTER  /SHOW,DEVICE-NAME  TO ENABLE GRAPHIC DISPLAY
 ENTER  FINISH             TO LEAVE POST1

 EXIT THE ANSYS POST1 DATABASE PROCESSOR


 ***** ROUTINE COMPLETED *****  CP =        50.156



 CLEAR DATABASE AND RERUN START.ANS

 RUN SETUP PROCEDURE FROM FILE= C:\Program Files\ANSYS Inc\v180\ANSYS\apdl\start.ans

 ANSYS Mechanical Enterprise                       

          ***** ANSYS ANALYSIS DEFINITION (PREP7) *****

 ENTER  /SHOW,DEVICE-NAME  TO ENABLE GRAPHIC DISPLAY
 ENTER  FINISH             TO LEAVE PREP7
 PRINTOUT KEY SET TO /GOPR (USE /NOPR TO SUPPRESS)


 ***** ROUTINE COMPLETED *****  CP =        50.281



 *****  ANSYS SOLUTION ROUTINE  *****

 FINISH SOLUTION PROCESSING


 ***** ROUTINE COMPLETED *****  CP =        50.281



 *****  ANSYS SOLUTION ROUTINE  *****

 *****  ANSYS SOLVE    COMMAND  *****

 *** SELECTION OF ELEMENT TECHNOLOGIES FOR APPLICABLE ELEMENTS ***
                ---GIVE SUGGESTIONS ONLY---

 ELEMENT TYPE  1 IS PLANE182 WITH PLANE STRESS OPTION. IT IS ASSOCIATED WITH
 LINEAR MATERIALS ONLY. KEYOPT(1)=2 IS SUGGESTED.



 SOLUTION MONITORING INFO IS WRITTEN TO FILE= 1911.mntr                                                                                                                                                                                                                                                           


 Range of element maximum matrix coefficients in global coordinates
 Maximum = 5611110.9 at element 128.                                     
 Minimum = 2917390.81 at element 143.                                    

   *** ELEMENT MATRIX FORMULATION TIMES
     TYPE    NUMBER   ENAME      TOTAL CP  AVE CP

        1       225  PLANE182      0.000   0.000000
 Time at end of element matrix formulation CP = 50.359375.               

 SPARSE MATRIX DIRECT SOLVER.
  Number of equations =         512,    Maximum wavefront =     16
  Memory allocated for solver              =     0.398 MB
  Memory required for in-core solution     =     0.385 MB
  Memory required for out-of-core solution =     0.260 MB

 *** NOTE ***                            CP =      50.422   TIME= 12:18:07
 The Sparse Matrix Solver is currently running in the in-core memory     
 mode.  This memory mode uses the most amount of memory in order to      
 avoid using the hard drive as much as possible, which most often        
 results in the fastest solution time.  This mode is recommended if      
 enough physical memory is present to accommodate all of the solver      
 data.                                                                   
 curEqn=    512  totEqn=    512 Job CP sec=     50.422
      Factor Done= 100% Factor Wall sec=      0.000 rate=       0.0 Mflops
 Sparse solver maximum pivot= 13646302.8 at node 254 UX.                 
 Sparse solver minimum pivot= 1277977.3 at node 220 UX.                  
 Sparse solver minimum pivot in absolute value= 1277977.3 at node 220    
 UX.                                                                     

   *** ELEMENT RESULT CALCULATION TIMES
     TYPE    NUMBER   ENAME      TOTAL CP  AVE CP

        1       225  PLANE182      0.000   0.000000

   *** NODAL LOAD CALCULATION TIMES
     TYPE    NUMBER   ENAME      TOTAL CP  AVE CP

        1       225  PLANE182      0.000   0.000000
 *** LOAD STEP     1   SUBSTEP     1  COMPLETED.    CUM ITER =      1
 *** TIME =   1.00000         TIME INC =   1.00000      NEW TRIANG MATRIX

 *** NOTE ***                            CP =      50.547   TIME= 12:18:07
 Solution is done!                                                       


 *** ANSYS BINARY FILE STATISTICS
  BUFFER SIZE USED= 16384
        0.125 MB WRITTEN ON ASSEMBLED MATRIX FILE: 1911.full
        0.500 MB WRITTEN ON RESULTS FILE: 1911.rst

 FINISH SOLUTION PROCESSING


 ***** ROUTINE COMPLETED *****  CP =        50.969



          ***** ANSYS RESULTS INTERPRETATION (POST1) *****

 ENTER  /SHOW,DEVICE-NAME  TO ENABLE GRAPHIC DISPLAY
 ENTER  FINISH             TO LEAVE POST1

 EXIT THE ANSYS POST1 DATABASE PROCESSOR


 ***** ROUTINE COMPLETED *****  CP =        51.000



          ***** ANSYS RESULTS INTERPRETATION (POST1) *****

 ENTER  /SHOW,DEVICE-NAME  TO ENABLE GRAPHIC DISPLAY
 ENTER  FINISH             TO LEAVE POST1

 *ENDDO  INDEX= W1                              

 EXIT THE ANSYS POST1 DATABASE PROCESSOR


 ***** ROUTINE COMPLETED *****  CP =        51.172



 CLEAR DATABASE AND RERUN START.ANS

 RUN SETUP PROCEDURE FROM FILE= C:\Program Files\ANSYS Inc\v180\ANSYS\apdl\start.ans

 ANSYS Mechanical Enterprise                       

          ***** ANSYS ANALYSIS DEFINITION (PREP7) *****

 ENTER  /SHOW,DEVICE-NAME  TO ENABLE GRAPHIC DISPLAY
 ENTER  FINISH             TO LEAVE PREP7
 PRINTOUT KEY SET TO /GOPR (USE /NOPR TO SUPPRESS)


 ***** ROUTINE COMPLETED *****  CP =        51.281



 *****  ANSYS SOLUTION ROUTINE  *****

 FINISH SOLUTION PROCESSING


 ***** ROUTINE COMPLETED *****  CP =        51.281



 *****  ANSYS SOLUTION ROUTINE  *****

 *****  ANSYS SOLVE    COMMAND  *****

 *** SELECTION OF ELEMENT TECHNOLOGIES FOR APPLICABLE ELEMENTS ***
                ---GIVE SUGGESTIONS ONLY---

 ELEMENT TYPE  1 IS PLANE182 WITH PLANE STRESS OPTION. IT IS ASSOCIATED WITH
 LINEAR MATERIALS ONLY. KEYOPT(1)=2 IS SUGGESTED.



 SOLUTION MONITORING INFO IS WRITTEN TO FILE= 1911.mntr                                                                                                                                                                                                                                                           


 Range of element maximum matrix coefficients in global coordinates
 Maximum = 7132759.31 at element 3.                                      
 Minimum = 2916681.78 at element 156.                                    

   *** ELEMENT MATRIX FORMULATION TIMES
     TYPE    NUMBER   ENAME      TOTAL CP  AVE CP

        1       232  PLANE182      0.000   0.000000
 Time at end of element matrix formulation CP = 51.375.                  

 SPARSE MATRIX DIRECT SOLVER.
  Number of equations =         526,    Maximum wavefront =     18
  Memory allocated for solver              =     0.413 MB
  Memory required for in-core solution     =     0.399 MB
  Memory required for out-of-core solution =     0.267 MB

 *** NOTE ***                            CP =      51.438   TIME= 12:18:09
 The Sparse Matrix Solver is currently running in the in-core memory     
 mode.  This memory mode uses the most amount of memory in order to      
 avoid using the hard drive as much as possible, which most often        
 results in the fastest solution time.  This mode is recommended if      
 enough physical memory is present to accommodate all of the solver      
 data.                                                                   
 curEqn=    526  totEqn=    526 Job CP sec=     51.438
      Factor Done= 100% Factor Wall sec=      0.000 rate=       0.0 Mflops
 Sparse solver maximum pivot= 14320357 at node 279 UY.                   
 Sparse solver minimum pivot= 1081675.7 at node 61 UX.                   
 Sparse solver minimum pivot in absolute value= 1081675.7 at node 61 UX. 

   *** ELEMENT RESULT CALCULATION TIMES
     TYPE    NUMBER   ENAME      TOTAL CP  AVE CP

        1       232  PLANE182      0.062   0.000269

   *** NODAL LOAD CALCULATION TIMES
     TYPE    NUMBER   ENAME      TOTAL CP  AVE CP

        1       232  PLANE182      0.000   0.000000
 *** LOAD STEP     1   SUBSTEP     1  COMPLETED.    CUM ITER =      1
 *** TIME =   1.00000         TIME INC =   1.00000      NEW TRIANG MATRIX

 *** NOTE ***                            CP =      51.562   TIME= 12:18:09
 Solution is done!                                                       


 *** ANSYS BINARY FILE STATISTICS
  BUFFER SIZE USED= 16384
        0.125 MB WRITTEN ON ASSEMBLED MATRIX FILE: 1911.full
        0.500 MB WRITTEN ON RESULTS FILE: 1911.rst

 FINISH SOLUTION PROCESSING


 ***** ROUTINE COMPLETED *****  CP =        51.969



          ***** ANSYS RESULTS INTERPRETATION (POST1) *****

 ENTER  /SHOW,DEVICE-NAME  TO ENABLE GRAPHIC DISPLAY
 ENTER  FINISH             TO LEAVE POST1

 EXIT THE ANSYS POST1 DATABASE PROCESSOR


 ***** ROUTINE COMPLETED *****  CP =        52.031



          ***** ANSYS RESULTS INTERPRETATION (POST1) *****

 ENTER  /SHOW,DEVICE-NAME  TO ENABLE GRAPHIC DISPLAY
 ENTER  FINISH             TO LEAVE POST1

 EXIT THE ANSYS POST1 DATABASE PROCESSOR


 ***** ROUTINE COMPLETED *****  CP =        52.156



 CLEAR DATABASE AND RERUN START.ANS

 RUN SETUP PROCEDURE FROM FILE= C:\Program Files\ANSYS Inc\v180\ANSYS\apdl\start.ans

 ANSYS Mechanical Enterprise                       

          ***** ANSYS ANALYSIS DEFINITION (PREP7) *****

 ENTER  /SHOW,DEVICE-NAME  TO ENABLE GRAPHIC DISPLAY
 ENTER  FINISH             TO LEAVE PREP7
 PRINTOUT KEY SET TO /GOPR (USE /NOPR TO SUPPRESS)


 ***** ROUTINE COMPLETED *****  CP =        52.297



 *****  ANSYS SOLUTION ROUTINE  *****

 FINISH SOLUTION PROCESSING


 ***** ROUTINE COMPLETED *****  CP =        52.297



 *****  ANSYS SOLUTION ROUTINE  *****

 FINISH SOLUTION PROCESSING


 ***** ROUTINE COMPLETED *****  CP =        52.297



 *****  ANSYS SOLUTION ROUTINE  *****

 *****  ANSYS SOLVE    COMMAND  *****

 *** SELECTION OF ELEMENT TECHNOLOGIES FOR APPLICABLE ELEMENTS ***
                ---GIVE SUGGESTIONS ONLY---

 ELEMENT TYPE  1 IS PLANE182 WITH PLANE STRESS OPTION. IT IS ASSOCIATED WITH
 LINEAR MATERIALS ONLY. KEYOPT(1)=2 IS SUGGESTED.



 SOLUTION MONITORING INFO IS WRITTEN TO FILE= 1911.mntr                                                                                                                                                                                                                                                           


 Range of element maximum matrix coefficients in global coordinates
 Maximum = 7202856.29 at element 24.                                     
 Minimum = 2916688.35 at element 146.                                    

   *** ELEMENT MATRIX FORMULATION TIMES
     TYPE    NUMBER   ENAME      TOTAL CP  AVE CP

        1       226  PLANE182      0.000   0.000000
 Time at end of element matrix formulation CP = 52.34375.                

 SPARSE MATRIX DIRECT SOLVER.
  Number of equations =         514,    Maximum wavefront =     16
  Memory allocated for solver              =     0.402 MB
  Memory required for in-core solution     =     0.389 MB
  Memory required for out-of-core solution =     0.261 MB

 *** NOTE ***                            CP =      52.406   TIME= 12:18:11
 The Sparse Matrix Solver is currently running in the in-core memory     
 mode.  This memory mode uses the most amount of memory in order to      
 avoid using the hard drive as much as possible, which most often        
 results in the fastest solution time.  This mode is recommended if      
 enough physical memory is present to accommodate all of the solver      
 data.                                                                   
 curEqn=    514  totEqn=    514 Job CP sec=     52.406
      Factor Done= 100% Factor Wall sec=      0.000 rate=       0.0 Mflops
 Sparse solver maximum pivot= 16605321.2 at node 247 UY.                 
 Sparse solver minimum pivot= 1772568.43 at node 149 UX.                 
 Sparse solver minimum pivot in absolute value= 1772568.43 at node 149   
 UX.                                                                     

   *** ELEMENT RESULT CALCULATION TIMES
     TYPE    NUMBER   ENAME      TOTAL CP  AVE CP

        1       226  PLANE182      0.000   0.000000

   *** NODAL LOAD CALCULATION TIMES
     TYPE    NUMBER   ENAME      TOTAL CP  AVE CP

        1       226  PLANE182      0.000   0.000000
 *** LOAD STEP     1   SUBSTEP     1  COMPLETED.    CUM ITER =      1
 *** TIME =   1.00000         TIME INC =   1.00000      NEW TRIANG MATRIX

 *** NOTE ***                            CP =      52.484   TIME= 12:18:12
 Solution is done!                                                       


 *** ANSYS BINARY FILE STATISTICS
  BUFFER SIZE USED= 16384
        0.125 MB WRITTEN ON ASSEMBLED MATRIX FILE: 1911.full
        0.500 MB WRITTEN ON RESULTS FILE: 1911.rst

 FINISH SOLUTION PROCESSING


 ***** ROUTINE COMPLETED *****  CP =        52.844



          ***** ANSYS RESULTS INTERPRETATION (POST1) *****

 ENTER  /SHOW,DEVICE-NAME  TO ENABLE GRAPHIC DISPLAY
 ENTER  FINISH             TO LEAVE POST1

 EXIT THE ANSYS POST1 DATABASE PROCESSOR


 ***** ROUTINE COMPLETED *****  CP =        52.875



          ***** ANSYS RESULTS INTERPRETATION (POST1) *****

 ENTER  /SHOW,DEVICE-NAME  TO ENABLE GRAPHIC DISPLAY
 ENTER  FINISH             TO LEAVE POST1

 EXIT THE ANSYS POST1 DATABASE PROCESSOR


 ***** ROUTINE COMPLETED *****  CP =        52.875



          ***** ANSYS RESULTS INTERPRETATION (POST1) *****

 ENTER  /SHOW,DEVICE-NAME  TO ENABLE GRAPHIC DISPLAY
 ENTER  FINISH             TO LEAVE POST1

 EXIT THE ANSYS POST1 DATABASE PROCESSOR


 ***** ROUTINE COMPLETED *****  CP =        52.922



 CLEAR DATABASE AND RERUN START.ANS

 RUN SETUP PROCEDURE FROM FILE= C:\Program Files\ANSYS Inc\v180\ANSYS\apdl\start.ans

 ANSYS Mechanical Enterprise                       

          ***** ANSYS ANALYSIS DEFINITION (PREP7) *****

 ENTER  /SHOW,DEVICE-NAME  TO ENABLE GRAPHIC DISPLAY
 ENTER  FINISH             TO LEAVE PREP7
 PRINTOUT KEY SET TO /GOPR (USE /NOPR TO SUPPRESS)


 ***** ROUTINE COMPLETED *****  CP =        53.062



 *****  ANSYS SOLUTION ROUTINE  *****

 FINISH SOLUTION PROCESSING


 ***** ROUTINE COMPLETED *****  CP =        53.062



 *****  ANSYS SOLUTION ROUTINE  *****

 FINISH SOLUTION PROCESSING


 ***** ROUTINE COMPLETED *****  CP =        53.062



 *****  ANSYS SOLUTION ROUTINE  *****

 *****  ANSYS SOLVE    COMMAND  *****

 *** SELECTION OF ELEMENT TECHNOLOGIES FOR APPLICABLE ELEMENTS ***
                ---GIVE SUGGESTIONS ONLY---

 ELEMENT TYPE  1 IS PLANE182 WITH PLANE STRESS OPTION. IT IS ASSOCIATED WITH
 LINEAR MATERIALS ONLY. KEYOPT(1)=2 IS SUGGESTED.



 SOLUTION MONITORING INFO IS WRITTEN TO FILE= 1911.mntr                                                                                                                                                                                                                                                           


 Range of element maximum matrix coefficients in global coordinates
 Maximum = 6666365.5 at element 233.                                     
 Minimum = 2918460.26 at element 169.                                    

   *** ELEMENT MATRIX FORMULATION TIMES
     TYPE    NUMBER   ENAME      TOTAL CP  AVE CP

        1       243  PLANE182      0.000   0.000000
 Time at end of element matrix formulation CP = 53.125.                  

 SPARSE MATRIX DIRECT SOLVER.
  Number of equations =         548,    Maximum wavefront =     18
  Memory allocated for solver              =     0.432 MB
  Memory required for in-core solution     =     0.417 MB
  Memory required for out-of-core solution =     0.277 MB

 *** NOTE ***                            CP =      53.172   TIME= 12:18:14
 The Sparse Matrix Solver is currently running in the in-core memory     
 mode.  This memory mode uses the most amount of memory in order to      
 avoid using the hard drive as much as possible, which most often        
 results in the fastest solution time.  This mode is recommended if      
 enough physical memory is present to accommodate all of the solver      
 data.                                                                   
 curEqn=    548  totEqn=    548 Job CP sec=     53.172
      Factor Done= 100% Factor Wall sec=      0.000 rate=       0.0 Mflops
 Sparse solver maximum pivot= 14532000.3 at node 184 UY.                 
 Sparse solver minimum pivot= 1199818.53 at node 73 UX.                  
 Sparse solver minimum pivot in absolute value= 1199818.53 at node 73    
 UX.                                                                     

   *** ELEMENT RESULT CALCULATION TIMES
     TYPE    NUMBER   ENAME      TOTAL CP  AVE CP

        1       243  PLANE182      0.000   0.000000

   *** NODAL LOAD CALCULATION TIMES
     TYPE    NUMBER   ENAME      TOTAL CP  AVE CP

        1       243  PLANE182      0.000   0.000000
 *** LOAD STEP     1   SUBSTEP     1  COMPLETED.    CUM ITER =      1
 *** TIME =   1.00000         TIME INC =   1.00000      NEW TRIANG MATRIX

 *** NOTE ***                            CP =      53.297   TIME= 12:18:14
 Solution is done!                                                       


 *** ANSYS BINARY FILE STATISTICS
  BUFFER SIZE USED= 16384
        0.125 MB WRITTEN ON ASSEMBLED MATRIX FILE: 1911.full
        0.500 MB WRITTEN ON RESULTS FILE: 1911.rst

 FINISH SOLUTION PROCESSING


 ***** ROUTINE COMPLETED *****  CP =        53.719



          ***** ANSYS RESULTS INTERPRETATION (POST1) *****

 ENTER  /SHOW,DEVICE-NAME  TO ENABLE GRAPHIC DISPLAY
 ENTER  FINISH             TO LEAVE POST1

 EXIT THE ANSYS POST1 DATABASE PROCESSOR


 ***** ROUTINE COMPLETED *****  CP =        53.781



          ***** ANSYS RESULTS INTERPRETATION (POST1) *****

 ENTER  /SHOW,DEVICE-NAME  TO ENABLE GRAPHIC DISPLAY
 ENTER  FINISH             TO LEAVE POST1

 EXIT THE ANSYS POST1 DATABASE PROCESSOR


 ***** ROUTINE COMPLETED *****  CP =        53.828



          ***** ANSYS RESULTS INTERPRETATION (POST1) *****

 ENTER  /SHOW,DEVICE-NAME  TO ENABLE GRAPHIC DISPLAY
 ENTER  FINISH             TO LEAVE POST1

 EXIT THE ANSYS POST1 DATABASE PROCESSOR


 ***** ROUTINE COMPLETED *****  CP =        53.922



 CLEAR DATABASE AND RERUN START.ANS

 RUN SETUP PROCEDURE FROM FILE= C:\Program Files\ANSYS Inc\v180\ANSYS\apdl\start.ans

 ANSYS Mechanical Enterprise                       

          ***** ANSYS ANALYSIS DEFINITION (PREP7) *****

 ENTER  /SHOW,DEVICE-NAME  TO ENABLE GRAPHIC DISPLAY
 ENTER  FINISH             TO LEAVE PREP7
 PRINTOUT KEY SET TO /GOPR (USE /NOPR TO SUPPRESS)


 ***** ROUTINE COMPLETED *****  CP =        54.078



 *****  ANSYS SOLUTION ROUTINE  *****

 FINISH SOLUTION PROCESSING


 ***** ROUTINE COMPLETED *****  CP =        54.078



 *****  ANSYS SOLUTION ROUTINE  *****

 FINISH SOLUTION PROCESSING


 ***** ROUTINE COMPLETED *****  CP =        54.078



 *****  ANSYS SOLUTION ROUTINE  *****

 *****  ANSYS SOLVE    COMMAND  *****

 *** SELECTION OF ELEMENT TECHNOLOGIES FOR APPLICABLE ELEMENTS ***
                ---GIVE SUGGESTIONS ONLY---

 ELEMENT TYPE  1 IS PLANE182 WITH PLANE STRESS OPTION. IT IS ASSOCIATED WITH
 LINEAR MATERIALS ONLY. KEYOPT(1)=2 IS SUGGESTED.



 SOLUTION MONITORING INFO IS WRITTEN TO FILE= 1911.mntr                                                                                                                                                                                                                                                           


 Range of element maximum matrix coefficients in global coordinates
 Maximum = 6700584.01 at element 206.                                    
 Minimum = 2916686.64 at element 177.                                    

[...]

   *** ELEMENT RESULT CALCULATION TIMES
     TYPE    NUMBER   ENAME      TOTAL CP  AVE CP

        1       241  PLANE182      0.062   0.000259

   *** NODAL LOAD CALCULATION TIMES
     TYPE    NUMBER   ENAME      TOTAL CP  AVE CP

        1       241  PLANE182      0.000   0.000000
 *** LOAD STEP     1   SUBSTEP     1  COMPLETED.    CUM ITER =      1
 *** TIME =   1.00000         TIME INC =   1.00000      NEW TRIANG MATRIX

 *** NOTE ***                            CP =     128.422   TIME= 12:21:29
 Solution is done!                                                       


 *** ANSYS BINARY FILE STATISTICS
  BUFFER SIZE USED= 16384
        0.125 MB WRITTEN ON ASSEMBLED MATRIX FILE: 1911.full
        0.500 MB WRITTEN ON RESULTS FILE: 1911.rst

 FINISH SOLUTION PROCESSING


 ***** ROUTINE COMPLETED *****  CP =       128.938



          ***** ANSYS RESULTS INTERPRETATION (POST1) *****

 ENTER  /SHOW,DEVICE-NAME  TO ENABLE GRAPHIC DISPLAY
 ENTER  FINISH             TO LEAVE POST1

 EXIT THE ANSYS POST1 DATABASE PROCESSOR


 ***** ROUTINE COMPLETED *****  CP =       129.047



          ***** ANSYS RESULTS INTERPRETATION (POST1) *****

 ENTER  /SHOW,DEVICE-NAME  TO ENABLE GRAPHIC DISPLAY
 ENTER  FINISH             TO LEAVE POST1

 EXIT THE ANSYS POST1 DATABASE PROCESSOR


 ***** ROUTINE COMPLETED *****  CP =       129.094



 CLEAR DATABASE AND RERUN START.ANS

 RUN SETUP PROCEDURE FROM FILE= C:\Program Files\ANSYS Inc\v180\ANSYS\apdl\start.ans

 ANSYS Mechanical Enterprise                       

          ***** ANSYS ANALYSIS DEFINITION (PREP7) *****

 ENTER  /SHOW,DEVICE-NAME  TO ENABLE GRAPHIC DISPLAY
 ENTER  FINISH             TO LEAVE PREP7
 PRINTOUT KEY SET TO /GOPR (USE /NOPR TO SUPPRESS)


 ***** ROUTINE COMPLETED *****  CP =       129.250



 *****  ANSYS SOLUTION ROUTINE  *****

 FINISH SOLUTION PROCESSING


 ***** ROUTINE COMPLETED *****  CP =       129.250



 *****  ANSYS SOLUTION ROUTINE  *****

 FINISH SOLUTION PROCESSING


 ***** ROUTINE COMPLETED *****  CP =       129.250



 *****  ANSYS SOLUTION ROUTINE  *****

 *****  ANSYS SOLVE    COMMAND  *****

 *** SELECTION OF ELEMENT TECHNOLOGIES FOR APPLICABLE ELEMENTS ***
                ---GIVE SUGGESTIONS ONLY---

 ELEMENT TYPE  1 IS PLANE182 WITH PLANE STRESS OPTION. IT IS ASSOCIATED WITH
 LINEAR MATERIALS ONLY. KEYOPT(1)=2 IS SUGGESTED.



 SOLUTION MONITORING INFO IS WRITTEN TO FILE= 1911.mntr                                                                                                                                                                                                                                                           


 Range of element maximum matrix coefficients in global coordinates
 Maximum = 5883210.18 at element 10.                                     
 Minimum = 2916666.82 at element 169.                                    

   *** ELEMENT MATRIX FORMULATION TIMES
     TYPE    NUMBER   ENAME      TOTAL CP  AVE CP

        1       249  PLANE182      0.000   0.000000
 Time at end of element matrix formulation CP = 129.296875.              

 SPARSE MATRIX DIRECT SOLVER.
  Number of equations =         560,    Maximum wavefront =     18
  Memory allocated for solver              =     0.452 MB
  Memory required for in-core solution     =     0.437 MB
  Memory required for out-of-core solution =     0.283 MB

 *** NOTE ***                            CP =     129.344   TIME= 12:21:32
 The Sparse Matrix Solver is currently running in the in-core memory     
 mode.  This memory mode uses the most amount of memory in order to      
 avoid using the hard drive as much as possible, which most often        
 results in the fastest solution time.  This mode is recommended if      
 enough physical memory is present to accommodate all of the solver      
 data.                                                                   
 curEqn=    560  totEqn=    560 Job CP sec=    129.344
      Factor Done= 100% Factor Wall sec=      0.000 rate=       0.0 Mflops
 Sparse solver maximum pivot= 14198175.4 at node 111 UX.                 
 Sparse solver minimum pivot= 1496620.95 at node 78 UY.                  
 Sparse solver minimum pivot in absolute value= 1496620.95 at node 78    
 UY.                                                                     

   *** ELEMENT RESULT CALCULATION TIMES
     TYPE    NUMBER   ENAME      TOTAL CP  AVE CP

        1       249  PLANE182      0.031   0.000126

   *** NODAL LOAD CALCULATION TIMES
     TYPE    NUMBER   ENAME      TOTAL CP  AVE CP

        1       249  PLANE182      0.000   0.000000
 *** LOAD STEP     1   SUBSTEP     1  COMPLETED.    CUM ITER =      1
 *** TIME =   1.00000         TIME INC =   1.00000      NEW TRIANG MATRIX

 *** NOTE ***                            CP =     129.453   TIME= 12:21:32
 Solution is done!                                                       


 *** ANSYS BINARY FILE STATISTICS
  BUFFER SIZE USED= 16384
        0.125 MB WRITTEN ON ASSEMBLED MATRIX FILE: 1911.full
        0.500 MB WRITTEN ON RESULTS FILE: 1911.rst

 FINISH SOLUTION PROCESSING


 ***** ROUTINE COMPLETED *****  CP =       129.922



          ***** ANSYS RESULTS INTERPRETATION (POST1) *****

 ENTER  /SHOW,DEVICE-NAME  TO ENABLE GRAPHIC DISPLAY
 ENTER  FINISH             TO LEAVE POST1

 EXIT THE ANSYS POST1 DATABASE PROCESSOR


 ***** ROUTINE COMPLETED *****  CP =       129.953



          ***** ANSYS RESULTS INTERPRETATION (POST1) *****

 ENTER  /SHOW,DEVICE-NAME  TO ENABLE GRAPHIC DISPLAY
 ENTER  FINISH             TO LEAVE POST1

 EXIT THE ANSYS POST1 DATABASE PROCESSOR


 ***** ROUTINE COMPLETED *****  CP =       129.984



          ***** ANSYS RESULTS INTERPRETATION (POST1) *****

 ENTER  /SHOW,DEVICE-NAME  TO ENABLE GRAPHIC DISPLAY
 ENTER  FINISH             TO LEAVE POST1

 EXIT THE ANSYS POST1 DATABASE PROCESSOR


 ***** ROUTINE COMPLETED *****  CP =       130.031



 CLEAR DATABASE AND RERUN START.ANS

 RUN SETUP PROCEDURE FROM FILE= C:\Program Files\ANSYS Inc\v180\ANSYS\apdl\start.ans

 ANSYS Mechanical Enterprise                       

          ***** ANSYS ANALYSIS DEFINITION (PREP7) *****

 ENTER  /SHOW,DEVICE-NAME  TO ENABLE GRAPHIC DISPLAY
 ENTER  FINISH             TO LEAVE PREP7
 PRINTOUT KEY SET TO /GOPR (USE /NOPR TO SUPPRESS)


 ***** ROUTINE COMPLETED *****  CP =       130.141



 *****  ANSYS SOLUTION ROUTINE  *****

 FINISH SOLUTION PROCESSING


 ***** ROUTINE COMPLETED *****  CP =       130.141



 *****  ANSYS SOLUTION ROUTINE  *****

 *****  ANSYS SOLVE    COMMAND  *****

 *** SELECTION OF ELEMENT TECHNOLOGIES FOR APPLICABLE ELEMENTS ***
                ---GIVE SUGGESTIONS ONLY---

 ELEMENT TYPE  1 IS PLANE182 WITH PLANE STRESS OPTION. IT IS ASSOCIATED WITH
 LINEAR MATERIALS ONLY. KEYOPT(1)=2 IS SUGGESTED.



 SOLUTION MONITORING INFO IS WRITTEN TO FILE= 1911.mntr                                                                                                                                                                                                                                                           


 Range of element maximum matrix coefficients in global coordinates
 Maximum = 5737318.17 at element 149.                                    
 Minimum = 2916666.81 at element 168.                                    

   *** ELEMENT MATRIX FORMULATION TIMES
     TYPE    NUMBER   ENAME      TOTAL CP  AVE CP

        1       238  PLANE182      0.000   0.000000
 Time at end of element matrix formulation CP = 130.203125.              

 SPARSE MATRIX DIRECT SOLVER.
  Number of equations =         538,    Maximum wavefront =     18
  Memory allocated for solver              =     0.425 MB
  Memory required for in-core solution     =     0.411 MB
  Memory required for out-of-core solution =     0.271 MB

 *** NOTE ***                            CP =     130.266   TIME= 12:21:34
 The Sparse Matrix Solver is currently running in the in-core memory     
 mode.  This memory mode uses the most amount of memory in order to      
 avoid using the hard drive as much as possible, which most often        
 results in the fastest solution time.  This mode is recommended if      
 enough physical memory is present to accommodate all of the solver      
 data.                                                                   
 curEqn=    538  totEqn=    538 Job CP sec=    130.266
      Factor Done= 100% Factor Wall sec=      0.000 rate=       0.0 Mflops
 Sparse solver maximum pivot= 13984241.9 at node 97 UY.                  
 Sparse solver minimum pivot= 1379357.01 at node 281 UX.                 
 Sparse solver minimum pivot in absolute value= 1379357.01 at node 281   
 UX.                                                                     

   *** ELEMENT RESULT CALCULATION TIMES
     TYPE    NUMBER   ENAME      TOTAL CP  AVE CP

        1       238  PLANE182      0.062   0.000263

   *** NODAL LOAD CALCULATION TIMES
     TYPE    NUMBER   ENAME      TOTAL CP  AVE CP

        1       238  PLANE182      0.000   0.000000
 *** LOAD STEP     1   SUBSTEP     1  COMPLETED.    CUM ITER =      1
 *** TIME =   1.00000         TIME INC =   1.00000      NEW TRIANG MATRIX

 *** NOTE ***                            CP =     130.359   TIME= 12:21:34
 Solution is done!                                                       


 *** ANSYS BINARY FILE STATISTICS
  BUFFER SIZE USED= 16384
        0.125 MB WRITTEN ON ASSEMBLED MATRIX FILE: 1911.full
        0.500 MB WRITTEN ON RESULTS FILE: 1911.rst

 FINISH SOLUTION PROCESSING


 ***** ROUTINE COMPLETED *****  CP =       130.844



          ***** ANSYS RESULTS INTERPRETATION (POST1) *****

 ENTER  /SHOW,DEVICE-NAME  TO ENABLE GRAPHIC DISPLAY
 ENTER  FINISH             TO LEAVE POST1

 EXIT THE ANSYS POST1 DATABASE PROCESSOR


 ***** ROUTINE COMPLETED *****  CP =       130.969



          ***** ANSYS RESULTS INTERPRETATION (POST1) *****

 ENTER  /SHOW,DEVICE-NAME  TO ENABLE GRAPHIC DISPLAY
 ENTER  FINISH             TO LEAVE POST1

 *ENDDO  INDEX= DOOR                            

  Import Data From File c (Format=APDL)

  Export EXPORTMATRIX object to mytemp.mtx (Format=MMF)

 EXIT THE ANSYS POST1 DATABASE PROCESSOR


 ***** ROUTINE COMPLETED *****  CP =       131.375



 *** NOTE ***                            CP =     131.375   TIME= 12:21:36
 A total of 212 warnings and errors written to M:\Eigene                 
 Dateien\GitHub\NNStatikProjektarbeit\Projektarbeit\Ansys\Environment\19 
 911.err.                                                                

 VECTOR GET OPERATION    VECTOR LENGTH=     285
 NAME= NODE         0  U     X   
 ITLVL=       2

 CLEAR DATABASE AND RERUN START.ANS

 RUN SETUP PROCEDURE FROM FILE= C:\Program Files\ANSYS Inc\v180\ANSYS\apdl\start.ans

 ANSYS Mechanical Enterprise                       

 /INPUT FILE= C:\Program Files\ANSYS Inc\v180\ANSYS\apdl\start.ans  LINE=       0

          ***** ANSYS ANALYSIS DEFINITION (PREP7) *****

 ENTER  /SHOW,DEVICE-NAME  TO ENABLE GRAPHIC DISPLAY
 ENTER  FINISH             TO LEAVE PREP7
 PRINTOUT KEY SET TO /GOPR (USE /NOPR TO SUPPRESS)

 PARAMETER LX =     10.00000000    

 PARAMETER H =     1.000000000    

 PARAMETER T =     1.000000000    

 PARAMETER NELE_X =     20.00000000    

 PARAMETER NELE_Y =     2.000000000    

 PARAMETER E =     10000.00000    

 PARAMETER NU =    0.3000000000    

 PARAMETER RHO =    0.2500000000    

 KEYPOINT      1   X,Y,Z=   0.00000       0.00000       0.00000      IN CSYS=  0

 PLOT KEY POINTS FROM       1 TO       1 BY      1

 KEYPOINT      2   X,Y,Z=   10.0000       0.00000       0.00000      IN CSYS=  0

 PLOT KEY POINTS FROM       1 TO       2 BY      1

 KEYPOINT      3   X,Y,Z=   10.0000       1.00000       0.00000      IN CSYS=  0

 PLOT KEY POINTS FROM       1 TO       3 BY      1

 KEYPOINT      4   X,Y,Z=   0.00000       1.00000       0.00000      IN CSYS=  0

 DEFINE AREA BY LIST OF KEYPOINTS
   KEYPOINT LIST =      1     2     3     4

     AREA NUMBER =      1

 ELEMENT TYPE       1 IS PLANE182     2-D 4-NODE PLANE STRS SOLID 
  KEYOPT( 1- 6)=        0      0      0        0      0      0
  KEYOPT( 7-12)=        0      0      0        0      0      0
  KEYOPT(13-18)=        0      0      0        0      0      0

 CURRENT NODAL DOF SET IS  UX    UY  
  TWO-DIMENSIONAL MODEL

 ELEMENT TYPE       1 IS PLANE182     2-D 4-NODE PLANE STRS SOLID 
  KEYOPT( 1- 6)=        2      0      0        0      0      0
  KEYOPT( 7-12)=        0      0      0        0      0      0
  KEYOPT(13-18)=        0      0      0        0      0      0

 CURRENT NODAL DOF SET IS  UX    UY  
  TWO-DIMENSIONAL MODEL

 ELEMENT TYPE       1 IS PLANE182     2-D 4-NODE PLANE STRN SOLID 
  KEYOPT( 1- 6)=        2      0      2        0      0      0
  KEYOPT( 7-12)=        0      0      0        0      0      0
  KEYOPT(13-18)=        0      0      0        0      0      0

 CURRENT NODAL DOF SET IS  UX    UY  
  TWO-DIMENSIONAL MODEL

 MATERIAL         1     EX   =   10000.00      

 MATERIAL         1     PRXY =  0.3000000      

 SET DIVISIONS ON LINE     1 (IF SELECTED)
      TO  NDIV =   20,  SPACING RATIO =   1.000

 SET DIVISIONS ON LINE     3 (IF SELECTED)
      TO  NDIV =   20,  SPACING RATIO =   1.000

 SET DIVISIONS ON LINE     2 (IF SELECTED)
      TO  NDIV =    2,  SPACING RATIO =   1.000

 SET DIVISIONS ON LINE     4 (IF SELECTED)
      TO  NDIV =    2,  SPACING RATIO =   1.000

 GENERATE NODES AND ELEMENTS
       IN AREAS         1  TO      1  IN STEPS OF      1
                                                                         
 ** Meshing of area 1 in progress **                                     
    ** AREA     1 MESHED WITH      40 QUADRILATERALS,        0 TRIANGLES **
 ** Meshing of area 1 completed ** 40 elements.                          

 NUMBER OF AREAS MESHED     =          1
 MAXIMUM NODE NUMBER        =         63
 MAXIMUM ELEMENT NUMBER     =         40


 ***** ROUTINE COMPLETED *****  CP =       134.328



 *** NOTE ***                            CP =     134.328   TIME= 12:32:43
 A total of 213 warnings and errors written to M:\Eigene                 
 Dateien\GitHub\NNStatikProjektarbeit\Projektarbeit\Ansys\Environment\19 
 911.err.                                                                

 *****  ANSYS SOLUTION ROUTINE  *****


 PERFORM A STATIC ANALYSIS
  THIS WILL BE A NEW ANALYSIS

 CONSTRAINT AT LINE     4
      LOAD LABELS = UX    UY  
      VALUES =      0.0000         0.0000    

 ALL BOUNDARY CONDITION DISPLAY KEYS SET TO  1

 SPECIFIED NODAL LOAD FY   FOR SELECTED NODES         2 TO        2 BY        1
  REAL= -5.00000000       IMAG=  0.00000000    

 *****  ANSYS SOLVE    COMMAND  *****

 TRANSFER SOLID MODEL BOUNDARY CONDITIONS TO FINITE ELEMENT MODEL
      CONSTRAINTS    TRANSFERRED FROM LINES         =      6

 *** NOTE ***                            CP =     134.891   TIME= 12:32:44
 There is no title defined for this analysis.                            

 *** SELECTION OF ELEMENT TECHNOLOGIES FOR APPLICABLE ELEMENTS ***
                ---GIVE SUGGESTIONS ONLY---

 ELEMENT TYPE  1 IS PLANE182 WITH PLANE STRAIN OPTION. IT IS ASSOCIATED WITH
 LINEAR MATERIALS ONLY AND POISSON'S RATIO IS NOT GREATER THAN 0.49.
 KEYOPT(1)=3 IS SUGGESTED.



                       S O L U T I O N   O P T I O N S

   PROBLEM DIMENSIONALITY. . . . . . . . . . . . .2-D                  
   DEGREES OF FREEDOM. . . . . . UX   UY  
   ANALYSIS TYPE . . . . . . . . . . . . . . . . .STATIC (STEADY-STATE)
   GLOBALLY ASSEMBLED MATRIX . . . . . . . . . . .SYMMETRIC  

 *** NOTE ***                            CP =     134.891   TIME= 12:32:44
 Present time 0 is less than or equal to the previous time.  Time will   
 default to 1.                                                           

 *** NOTE ***                            CP =     134.891   TIME= 12:32:44
 The conditions for direct assembly have been met.  No .emat or .erot    
 files will be produced.                                                 

                      L O A D   S T E P   O P T I O N S

   LOAD STEP NUMBER. . . . . . . . . . . . . . . .     1
   TIME AT END OF THE LOAD STEP. . . . . . . . . .  1.0000    
   NUMBER OF SUBSTEPS. . . . . . . . . . . . . . .     1
   STEP CHANGE BOUNDARY CONDITIONS . . . . . . . .    NO
   PRINT OUTPUT CONTROLS . . . . . . . . . . . . .NO PRINTOUT
   DATABASE OUTPUT CONTROLS. . . . . . . . . . . .ALL DATA WRITTEN
                                                  FOR THE LAST SUBSTEP


 SOLUTION MONITORING INFO IS WRITTEN TO FILE= 1911.mntr                                                                                                                                                                                                                                                           


 Range of element maximum matrix coefficients in global coordinates
 Maximum = 5242.67399 at element 22.                                     
 Minimum = 5242.67399 at element 37.                                     

   *** ELEMENT MATRIX FORMULATION TIMES
     TYPE    NUMBER   ENAME      TOTAL CP  AVE CP

        1        40  PLANE182      0.000   0.000000
 Time at end of element matrix formulation CP = 135.015625.              

 SPARSE MATRIX DIRECT SOLVER.
  Number of equations =         120,    Maximum wavefront =     12
  Memory allocated for solver              =     0.111 MB
  Memory required for in-core solution     =     0.107 MB
  Memory required for out-of-core solution =     0.094 MB

 *** NOTE ***                            CP =     135.078   TIME= 12:32:44
 The Sparse Matrix Solver is currently running in the in-core memory     
 mode.  This memory mode uses the most amount of memory in order to      
 avoid using the hard drive as much as possible, which most often        
 results in the fastest solution time.  This mode is recommended if      
 enough physical memory is present to accommodate all of the solver      
 data.                                                                   
 Sparse solver maximum pivot= 19281.1555 at node 45 UX.                  
 Sparse solver minimum pivot= 74.7709976 at node 13 UY.                  
 Sparse solver minimum pivot in absolute value= 74.7709976 at node 13    
 UY.                                                                     

   *** ELEMENT RESULT CALCULATION TIMES
     TYPE    NUMBER   ENAME      TOTAL CP  AVE CP

        1        40  PLANE182      0.000   0.000000

   *** NODAL LOAD CALCULATION TIMES
     TYPE    NUMBER   ENAME      TOTAL CP  AVE CP

        1        40  PLANE182      0.000   0.000000
 *** LOAD STEP     1   SUBSTEP     1  COMPLETED.    CUM ITER =      1
 *** TIME =   1.00000         TIME INC =   1.00000      NEW TRIANG MATRIX

 *** NOTE ***                            CP =     135.156   TIME= 12:32:44
 Solution is done!                                                       


 *** ANSYS BINARY FILE STATISTICS
  BUFFER SIZE USED= 16384
        0.062 MB WRITTEN ON ASSEMBLED MATRIX FILE: 1911.full
        0.312 MB WRITTEN ON RESULTS FILE: 1911.rst

 FINISH SOLUTION PROCESSING


 ***** ROUTINE COMPLETED *****  CP =       135.781



 *** NOTE ***                            CP =     135.781   TIME= 12:32:45
 A total of 214 warnings and errors written to M:\Eigene                 
 Dateien\GitHub\NNStatikProjektarbeit\Projektarbeit\Ansys\Environment\19 
 911.err.                                                                

          ***** ANSYS RESULTS INTERPRETATION (POST1) *****

 ENTER  /SHOW,DEVICE-NAME  TO ENABLE GRAPHIC DISPLAY
 ENTER  FINISH             TO LEAVE POST1

 DISTORTION SCALE FOR WINDOW 1    1.0000    

 PRODUCE DISPLACEMENT PLOT, KUND= 2

 Define Path  Name= PATH_VER  nPts=    2  nSets=  30  nDiv=1000
 PPATH  Point=  1  Node=       0  X,Y,Z=  0.000      0.000      0.000     cs=  0
 PPATH  Point=  2  Node=       0  X,Y,Z=  0.000      1.000      0.000     cs=  0
