
 ANSYS Mechanical Enterprise                       


 *------------------------------------------------------------------*
 |                                                                  |
 |   W E L C O M E   T O   T H E   A N S Y S (R)  P R O G R A M     |
 |                                                                  |
 *------------------------------------------------------------------*




 ***************************************************************
 *            ANSYS 2020 R1          LEGAL NOTICES             *
 ***************************************************************
 *                                                             *
 * Copyright 1971-2020 ANSYS, Inc.  All rights reserved.       *
 * Unauthorized use, distribution or duplication is            *
 * prohibited.                                                 *
 *                                                             *
 * Ansys is a registered trademark of ANSYS, Inc. or its       *
 * subsidiaries in the United States or other countries.       *
 * See the ANSYS, Inc. online documentation or the ANSYS, Inc. *
 * documentation CD or online help for the complete Legal      *
 * Notice.                                                     *
 *                                                             *
 ***************************************************************
 *                                                             *
 * THIS ANSYS SOFTWARE PRODUCT AND PROGRAM DOCUMENTATION       *
 * INCLUDE TRADE SECRETS AND CONFIDENTIAL AND PROPRIETARY      *
 * PRODUCTS OF ANSYS, INC., ITS SUBSIDIARIES, OR LICENSORS.    *
 * The software products and documentation are furnished by    *
 * ANSYS, Inc. or its subsidiaries under a software license    *
 * agreement that contains provisions concerning               *
 * non-disclosure, copying, length and nature of use,          *
 * compliance with exporting laws, warranties, disclaimers,    *
 * limitations of liability, and remedies, and other           *
 * provisions.  The software products and documentation may be *
 * used, disclosed, transferred, or copied only in accordance  *
 * with the terms and conditions of that software license      *
 * agreement.                                                  *
 *                                                             *
 * ANSYS, Inc. is a UL registered                              *
 * ISO 9001:2015 company.                                      *
 *                                                             *
 ***************************************************************
 *                                                             *
 * This product is subject to U.S. laws governing export and   *
 * re-export.                                                  *
 *                                                             *
 * For U.S. Government users, except as specifically granted   *
 * by the ANSYS, Inc. software license agreement, the use,     *
 * duplication, or disclosure by the United States Government  *
 * is subject to restrictions stated in the ANSYS, Inc.        *
 * software license agreement and FAR 12.212 (for non-DOD      *
 * licenses).                                                  *
 *                                                             *
 ***************************************************************

 2020 R1 
     
 Point Releases and Patches installed:   
     
 ANSYS, Inc. Products 2020 R1
 SpaceClaim 2020 R1  
 Customization Files for User Programmable Features 2020 R1  
 Mechanical Products 2020 R1 
 Additive 2020 R1
 Remote Solve Manager Standalone Services 2020 R1
 Viewer 2020 R1  
 ACIS Geometry Interface 2020 R1 
 AutoCAD Geometry Interface 2020 R1  
 Catia, Version 4 Geometry Interface 2020 R1 
 Catia, Version 5 Geometry Interface 2020 R1 
 Catia, Version 6 Geometry Interface 2020 R1 
 Creo Elements/Direct Modeling Geometry Interface 2020 R1
 Creo Parametric Geometry Interface 2020 R1  
 Inventor Geometry Interface 2020 R1 
 JTOpen Geometry Interface 2020 R1   
 NX Geometry Interface 2020 R1   
 Parasolid Geometry Interface  2020 R1   
 Solid Edge Geometry Interface 2020 R1   
 SOLIDWORKS Geometry Interface 2020 R1   
 ANSYS, Inc. License Manager 2020 R1 


          *****  ANSYS COMMAND LINE ARGUMENTS  *****
  INITIAL JOBNAME              = GainData_3_12                                                                                                                                                                                                                                           
  DISTRIBUTED MEMORY PARALLEL REQUESTED
       2 PARALLEL PROCESSES REQUESTED WITH SINGLE THREAD PER PROCESS
    TOTAL OF     2 CORES REQUESTED
  MPI OPTION                   = INTELMPI
  START-UP FILE MODE           = READ  
  STOP FILE MODE               = READ  
  GRAPHICS DEVICE REQUESTED    = win32   
  GRAPHICAL ENTRY              = YES   
  LANGUAGE                     = en-us               
  INITIAL DIRECTORY = \\stud.uni-stuttgart.de\users\st\st166934\Eigene Dateien\GitHub\NNStatikProjektarbeit\Projektarbeit\Ansys\Environment

 RELEASE= 2020 R1              BUILD= 20.1      UP20191203   VERSION=WINDOWS x64 
 CURRENT JOBNAME=GainData_3_12_1  14:25:13  DEC 03, 2021 CP=      0.047



 NUMBER OF DISPLAYED ERRORS ALLOWED PER COMMAND=                  0
 NUMBER OF ERRORS ALLOWED PER COMMAND BEFORE ANSYS ABORT=     10000
 ALL ERRORS WRITTEN TO \\stud.uni-stuttgart.de\users\st\st166934\Eigene Dateien\GitHub\NNStatikProjektarbeit\Projektarbeit\Ansys\Environment\GainData_3_12_1.err                                                                                                                           
 DO NOT TERMINATE /INPUT UPON FIRST ERROR

 CLEAR DATABASE AND RERUN START.ANS

 ANSYS Mechanical Enterprise                       

 CLEAR DATABASE AND RERUN START.ANS

 ANSYS Mechanical Enterprise                       

 *****  ANSYS SOLUTION ROUTINE  *****

 FINISH SOLUTION PROCESSING


 ***** ROUTINE COMPLETED *****  CP =         1.875



 *****  ANSYS SOLUTION ROUTINE  *****


  Local memory allocated for solver              =      5.570 MB
  Local memory required for in-core solution     =      4.956 MB
  Local memory required for out-of-core solution =      2.911 MB

 *** NOTE ***                            CP =       1.984   TIME= 14:26:26
 The Distributed Sparse Matrix Solver is currently running in the        
 in-core memory mode.  This memory mode uses the most amount of memory   
 in order to avoid using the hard drive as much as possible, which most  
 often results in the fastest solution time.  This mode is recommended   
 if enough physical memory is present to accommodate all of the solver   
 data.                                                                   

   *** ELEMENT RESULT CALCULATION TIMES
     TYPE    NUMBER   ENAME      TOTAL CP  AVE CP

        1      4971  PLANE182      0.172   0.000035

   *** NODAL LOAD CALCULATION TIMES
     TYPE    NUMBER   ENAME      TOTAL CP  AVE CP

        1      4971  PLANE182      0.047   0.000009
 *** LOAD STEP     1   SUBSTEP     1  COMPLETED.    CUM ITER =      1
 *** TIME =   1.00000         TIME INC =   1.00000      NEW TRIANG MATRIX


 *** ANSYS BINARY FILE STATISTICS
  BUFFER SIZE USED= 16384
        0.938 MB WRITTEN ON ASSEMBLED MATRIX FILE: GainData_3_12_1.full
        1.688 MB WRITTEN ON RESULTS FILE: GainData_3_12_1.rst

 FINISH SOLUTION PROCESSING


 ***** ROUTINE COMPLETED *****  CP =         2.281



 CLEAR DATABASE AND RERUN START.ANS

 ANSYS Mechanical Enterprise                       

 *****  ANSYS SOLUTION ROUTINE  *****

 FINISH SOLUTION PROCESSING


 ***** ROUTINE COMPLETED *****  CP =         2.312



 *****  ANSYS SOLUTION ROUTINE  *****

 FINISH SOLUTION PROCESSING


 ***** ROUTINE COMPLETED *****  CP =         2.312



 *****  ANSYS SOLUTION ROUTINE  *****


  Local memory allocated for solver              =      5.639 MB
  Local memory required for in-core solution     =      5.013 MB
  Local memory required for out-of-core solution =      2.889 MB

 *** NOTE ***                            CP =       2.438   TIME= 14:26:30
 The Distributed Sparse Matrix Solver is currently running in the        
 in-core memory mode.  This memory mode uses the most amount of memory   
 in order to avoid using the hard drive as much as possible, which most  
 often results in the fastest solution time.  This mode is recommended   
 if enough physical memory is present to accommodate all of the solver   
 data.                                                                   

   *** ELEMENT RESULT CALCULATION TIMES
     TYPE    NUMBER   ENAME      TOTAL CP  AVE CP

        1      4919  PLANE182      0.188   0.000038

   *** NODAL LOAD CALCULATION TIMES
     TYPE    NUMBER   ENAME      TOTAL CP  AVE CP

        1      4919  PLANE182      0.031   0.000006
 *** LOAD STEP     1   SUBSTEP     1  COMPLETED.    CUM ITER =      1
 *** TIME =   1.00000         TIME INC =   1.00000      NEW TRIANG MATRIX


 *** ANSYS BINARY FILE STATISTICS
  BUFFER SIZE USED= 16384
        0.938 MB WRITTEN ON ASSEMBLED MATRIX FILE: GainData_3_12_1.full
        1.625 MB WRITTEN ON RESULTS FILE: GainData_3_12_1.rst

 FINISH SOLUTION PROCESSING


 ***** ROUTINE COMPLETED *****  CP =         2.703



 CLEAR DATABASE AND RERUN START.ANS

 ANSYS Mechanical Enterprise                       

 *****  ANSYS SOLUTION ROUTINE  *****

 FINISH SOLUTION PROCESSING


 ***** ROUTINE COMPLETED *****  CP =         2.719



 *****  ANSYS SOLUTION ROUTINE  *****

 FINISH SOLUTION PROCESSING


 ***** ROUTINE COMPLETED *****  CP =         2.719



 *****  ANSYS SOLUTION ROUTINE  *****


  Local memory allocated for solver              =      6.470 MB
  Local memory required for in-core solution     =      5.742 MB
  Local memory required for out-of-core solution =      3.141 MB

 *** NOTE ***                            CP =       2.844   TIME= 14:26:33
 The Distributed Sparse Matrix Solver is currently running in the        
 in-core memory mode.  This memory mode uses the most amount of memory   
 in order to avoid using the hard drive as much as possible, which most  
 often results in the fastest solution time.  This mode is recommended   
 if enough physical memory is present to accommodate all of the solver   
 data.                                                                   

   *** ELEMENT RESULT CALCULATION TIMES
     TYPE    NUMBER   ENAME      TOTAL CP  AVE CP

        1      5169  PLANE182      0.156   0.000030

   *** NODAL LOAD CALCULATION TIMES
     TYPE    NUMBER   ENAME      TOTAL CP  AVE CP

        1      5169  PLANE182      0.031   0.000006
 *** LOAD STEP     1   SUBSTEP     1  COMPLETED.    CUM ITER =      1
 *** TIME =   1.00000         TIME INC =   1.00000      NEW TRIANG MATRIX


 *** ANSYS BINARY FILE STATISTICS
  BUFFER SIZE USED= 16384
        0.938 MB WRITTEN ON ASSEMBLED MATRIX FILE: GainData_3_12_1.full
        1.688 MB WRITTEN ON RESULTS FILE: GainData_3_12_1.rst

 FINISH SOLUTION PROCESSING


 ***** ROUTINE COMPLETED *****  CP =         3.172



 CLEAR DATABASE AND RERUN START.ANS

 ANSYS Mechanical Enterprise                       

 *****  ANSYS SOLUTION ROUTINE  *****

 FINISH SOLUTION PROCESSING


 ***** ROUTINE COMPLETED *****  CP =         3.219



 *****  ANSYS SOLUTION ROUTINE  *****

 FINISH SOLUTION PROCESSING


 ***** ROUTINE COMPLETED *****  CP =         3.219



 *****  ANSYS SOLUTION ROUTINE  *****


  Local memory allocated for solver              =      6.148 MB
  Local memory required for in-core solution     =      5.462 MB
  Local memory required for out-of-core solution =      3.084 MB

 *** NOTE ***                            CP =       3.344   TIME= 14:26:36
 The Distributed Sparse Matrix Solver is currently running in the        
 in-core memory mode.  This memory mode uses the most amount of memory   
 in order to avoid using the hard drive as much as possible, which most  
 often results in the fastest solution time.  This mode is recommended   
 if enough physical memory is present to accommodate all of the solver   
 data.                                                                   

   *** ELEMENT RESULT CALCULATION TIMES
     TYPE    NUMBER   ENAME      TOTAL CP  AVE CP

        1      5089  PLANE182      0.125   0.000025

   *** NODAL LOAD CALCULATION TIMES
     TYPE    NUMBER   ENAME      TOTAL CP  AVE CP

        1      5089  PLANE182      0.062   0.000012
 *** LOAD STEP     1   SUBSTEP     1  COMPLETED.    CUM ITER =      1
 *** TIME =   1.00000         TIME INC =   1.00000      NEW TRIANG MATRIX


 *** ANSYS BINARY FILE STATISTICS
  BUFFER SIZE USED= 16384
        0.938 MB WRITTEN ON ASSEMBLED MATRIX FILE: GainData_3_12_1.full
        1.688 MB WRITTEN ON RESULTS FILE: GainData_3_12_1.rst

 FINISH SOLUTION PROCESSING


 ***** ROUTINE COMPLETED *****  CP =         3.672



 CLEAR DATABASE AND RERUN START.ANS

 ANSYS Mechanical Enterprise                       

 *****  ANSYS SOLUTION ROUTINE  *****

 FINISH SOLUTION PROCESSING


 ***** ROUTINE COMPLETED *****  CP =         3.703



 *****  ANSYS SOLUTION ROUTINE  *****

 FINISH SOLUTION PROCESSING


 ***** ROUTINE COMPLETED *****  CP =         3.703



 *****  ANSYS SOLUTION ROUTINE  *****


  Local memory allocated for solver              =      6.161 MB
  Local memory required for in-core solution     =      5.470 MB
  Local memory required for out-of-core solution =      3.040 MB

 *** NOTE ***                            CP =       3.781   TIME= 14:26:39
 The Distributed Sparse Matrix Solver is currently running in the        
 in-core memory mode.  This memory mode uses the most amount of memory   
 in order to avoid using the hard drive as much as possible, which most  
 often results in the fastest solution time.  This mode is recommended   
 if enough physical memory is present to accommodate all of the solver   
 data.                                                                   

   *** ELEMENT RESULT CALCULATION TIMES
     TYPE    NUMBER   ENAME      TOTAL CP  AVE CP

        1      5041  PLANE182      0.156   0.000031

   *** NODAL LOAD CALCULATION TIMES
     TYPE    NUMBER   ENAME      TOTAL CP  AVE CP

        1      5041  PLANE182      0.016   0.000003
 *** LOAD STEP     1   SUBSTEP     1  COMPLETED.    CUM ITER =      1
 *** TIME =   1.00000         TIME INC =   1.00000      NEW TRIANG MATRIX


 *** ANSYS BINARY FILE STATISTICS
  BUFFER SIZE USED= 16384
        0.938 MB WRITTEN ON ASSEMBLED MATRIX FILE: GainData_3_12_1.full
        1.688 MB WRITTEN ON RESULTS FILE: GainData_3_12_1.rst

 FINISH SOLUTION PROCESSING


 ***** ROUTINE COMPLETED *****  CP =         4.109



 CLEAR DATABASE AND RERUN START.ANS

 ANSYS Mechanical Enterprise                       

 *****  ANSYS SOLUTION ROUTINE  *****

 FINISH SOLUTION PROCESSING


 ***** ROUTINE COMPLETED *****  CP =         4.125



 *****  ANSYS SOLUTION ROUTINE  *****

 FINISH SOLUTION PROCESSING


 ***** ROUTINE COMPLETED *****  CP =         4.125



 *****  ANSYS SOLUTION ROUTINE  *****


  Local memory allocated for solver              =      6.195 MB
  Local memory required for in-core solution     =      5.505 MB
  Local memory required for out-of-core solution =      3.106 MB

 *** NOTE ***                            CP =       4.234   TIME= 14:26:42
 The Distributed Sparse Matrix Solver is currently running in the        
 in-core memory mode.  This memory mode uses the most amount of memory   
 in order to avoid using the hard drive as much as possible, which most  
 often results in the fastest solution time.  This mode is recommended   
 if enough physical memory is present to accommodate all of the solver   
 data.                                                                   

   *** ELEMENT RESULT CALCULATION TIMES
     TYPE    NUMBER   ENAME      TOTAL CP  AVE CP

        1      5120  PLANE182      0.125   0.000024

   *** NODAL LOAD CALCULATION TIMES
     TYPE    NUMBER   ENAME      TOTAL CP  AVE CP

        1      5120  PLANE182      0.062   0.000012
 *** LOAD STEP     1   SUBSTEP     1  COMPLETED.    CUM ITER =      1
 *** TIME =   1.00000         TIME INC =   1.00000      NEW TRIANG MATRIX


 *** ANSYS BINARY FILE STATISTICS
  BUFFER SIZE USED= 16384
        0.938 MB WRITTEN ON ASSEMBLED MATRIX FILE: GainData_3_12_1.full
        1.688 MB WRITTEN ON RESULTS FILE: GainData_3_12_1.rst

 FINISH SOLUTION PROCESSING


 ***** ROUTINE COMPLETED *****  CP =         4.578



 CLEAR DATABASE AND RERUN START.ANS

 ANSYS Mechanical Enterprise                       

 *****  ANSYS SOLUTION ROUTINE  *****

 FINISH SOLUTION PROCESSING


 ***** ROUTINE COMPLETED *****  CP =         4.594



 *****  ANSYS SOLUTION ROUTINE  *****

 FINISH SOLUTION PROCESSING


 ***** ROUTINE COMPLETED *****  CP =         4.594



 *****  ANSYS SOLUTION ROUTINE  *****


  Local memory allocated for solver              =      5.968 MB
  Local memory required for in-core solution     =      5.305 MB
  Local memory required for out-of-core solution =      2.995 MB

 *** NOTE ***                            CP =       4.703   TIME= 14:26:46
 The Distributed Sparse Matrix Solver is currently running in the        
 in-core memory mode.  This memory mode uses the most amount of memory   
 in order to avoid using the hard drive as much as possible, which most  
 often results in the fastest solution time.  This mode is recommended   
 if enough physical memory is present to accommodate all of the solver   
 data.                                                                   

   *** ELEMENT RESULT CALCULATION TIMES
     TYPE    NUMBER   ENAME      TOTAL CP  AVE CP

        1      5106  PLANE182      0.141   0.000028

   *** NODAL LOAD CALCULATION TIMES
     TYPE    NUMBER   ENAME      TOTAL CP  AVE CP

        1      5106  PLANE182      0.031   0.000006
 *** LOAD STEP     1   SUBSTEP     1  COMPLETED.    CUM ITER =      1
 *** TIME =   1.00000         TIME INC =   1.00000      NEW TRIANG MATRIX


 *** ANSYS BINARY FILE STATISTICS
  BUFFER SIZE USED= 16384
        0.938 MB WRITTEN ON ASSEMBLED MATRIX FILE: GainData_3_12_1.full
        1.688 MB WRITTEN ON RESULTS FILE: GainData_3_12_1.rst

 FINISH SOLUTION PROCESSING


 ***** ROUTINE COMPLETED *****  CP =         5.016



 CLEAR DATABASE AND RERUN START.ANS

 ANSYS Mechanical Enterprise                       

 *****  ANSYS SOLUTION ROUTINE  *****

 FINISH SOLUTION PROCESSING


 ***** ROUTINE COMPLETED *****  CP =         5.016



 *****  ANSYS SOLUTION ROUTINE  *****

 FINISH SOLUTION PROCESSING


 ***** ROUTINE COMPLETED *****  CP =         5.016



 *****  ANSYS SOLUTION ROUTINE  *****


  Local memory allocated for solver              =      6.335 MB
  Local memory required for in-core solution     =      5.624 MB
  Local memory required for out-of-core solution =      3.116 MB

 *** NOTE ***                            CP =       5.141   TIME= 14:26:50
 The Distributed Sparse Matrix Solver is currently running in the        
 in-core memory mode.  This memory mode uses the most amount of memory   
 in order to avoid using the hard drive as much as possible, which most  
 often results in the fastest solution time.  This mode is recommended   
 if enough physical memory is present to accommodate all of the solver   
 data.                                                                   

   *** ELEMENT RESULT CALCULATION TIMES
     TYPE    NUMBER   ENAME      TOTAL CP  AVE CP

        1      5194  PLANE182      0.156   0.000030

   *** NODAL LOAD CALCULATION TIMES
     TYPE    NUMBER   ENAME      TOTAL CP  AVE CP

        1      5194  PLANE182      0.016   0.000003
 *** LOAD STEP     1   SUBSTEP     1  COMPLETED.    CUM ITER =      1
 *** TIME =   1.00000         TIME INC =   1.00000      NEW TRIANG MATRIX


 *** ANSYS BINARY FILE STATISTICS
  BUFFER SIZE USED= 16384
        0.938 MB WRITTEN ON ASSEMBLED MATRIX FILE: GainData_3_12_1.full
        1.750 MB WRITTEN ON RESULTS FILE: GainData_3_12_1.rst

 FINISH SOLUTION PROCESSING


 ***** ROUTINE COMPLETED *****  CP =         5.469



 CLEAR DATABASE AND RERUN START.ANS

 ANSYS Mechanical Enterprise                       

 *****  ANSYS SOLUTION ROUTINE  *****

 FINISH SOLUTION PROCESSING


 ***** ROUTINE COMPLETED *****  CP =         5.484



 *****  ANSYS SOLUTION ROUTINE  *****

 FINISH SOLUTION PROCESSING


 ***** ROUTINE COMPLETED *****  CP =         5.484



 *****  ANSYS SOLUTION ROUTINE  *****


  Local memory allocated for solver              =      6.071 MB
  Local memory required for in-core solution     =      5.399 MB
  Local memory required for out-of-core solution =      3.117 MB

 *** NOTE ***                            CP =       5.641   TIME= 14:26:53
 The Distributed Sparse Matrix Solver is currently running in the        
 in-core memory mode.  This memory mode uses the most amount of memory   
 in order to avoid using the hard drive as much as possible, which most  
 often results in the fastest solution time.  This mode is recommended   
 if enough physical memory is present to accommodate all of the solver   
 data.                                                                   

   *** ELEMENT RESULT CALCULATION TIMES
     TYPE    NUMBER   ENAME      TOTAL CP  AVE CP

        1      5267  PLANE182      0.141   0.000027

   *** NODAL LOAD CALCULATION TIMES
     TYPE    NUMBER   ENAME      TOTAL CP  AVE CP

        1      5267  PLANE182      0.047   0.000009
 *** LOAD STEP     1   SUBSTEP     1  COMPLETED.    CUM ITER =      1
 *** TIME =   1.00000         TIME INC =   1.00000      NEW TRIANG MATRIX


 *** ANSYS BINARY FILE STATISTICS
  BUFFER SIZE USED= 16384
        1.000 MB WRITTEN ON ASSEMBLED MATRIX FILE: GainData_3_12_1.full
        1.750 MB WRITTEN ON RESULTS FILE: GainData_3_12_1.rst

 FINISH SOLUTION PROCESSING


 ***** ROUTINE COMPLETED *****  CP =         5.984



 CLEAR DATABASE AND RERUN START.ANS

 ANSYS Mechanical Enterprise                       

 *****  ANSYS SOLUTION ROUTINE  *****

 FINISH SOLUTION PROCESSING


 ***** ROUTINE COMPLETED *****  CP =         5.984



 *****  ANSYS SOLUTION ROUTINE  *****

 FINISH SOLUTION PROCESSING


 ***** ROUTINE COMPLETED *****  CP =         5.984



 *****  ANSYS SOLUTION ROUTINE  *****


  Local memory allocated for solver              =      6.148 MB
  Local memory required for in-core solution     =      5.466 MB
  Local memory required for out-of-core solution =      3.118 MB

 *** NOTE ***                            CP =       6.094   TIME= 14:26:56
 The Distributed Sparse Matrix Solver is currently running in the        
 in-core memory mode.  This memory mode uses the most amount of memory   
 in order to avoid using the hard drive as much as possible, which most  
 often results in the fastest solution time.  This mode is recommended   
 if enough physical memory is present to accommodate all of the solver   
 data.                                                                   

   *** ELEMENT RESULT CALCULATION TIMES
     TYPE    NUMBER   ENAME      TOTAL CP  AVE CP

        1      5327  PLANE182      0.172   0.000032

   *** NODAL LOAD CALCULATION TIMES
     TYPE    NUMBER   ENAME      TOTAL CP  AVE CP

        1      5327  PLANE182      0.000   0.000000
 *** LOAD STEP     1   SUBSTEP     1  COMPLETED.    CUM ITER =      1
 *** TIME =   1.00000         TIME INC =   1.00000      NEW TRIANG MATRIX


 *** ANSYS BINARY FILE STATISTICS
  BUFFER SIZE USED= 16384
        1.000 MB WRITTEN ON ASSEMBLED MATRIX FILE: GainData_3_12_1.full
        1.750 MB WRITTEN ON RESULTS FILE: GainData_3_12_1.rst

 FINISH SOLUTION PROCESSING


 ***** ROUTINE COMPLETED *****  CP =         6.500



 CLEAR DATABASE AND RERUN START.ANS

 ANSYS Mechanical Enterprise                       

 *****  ANSYS SOLUTION ROUTINE  *****

 FINISH SOLUTION PROCESSING


 ***** ROUTINE COMPLETED *****  CP =         6.500



 *****  ANSYS SOLUTION ROUTINE  *****

 FINISH SOLUTION PROCESSING


 ***** ROUTINE COMPLETED *****  CP =         6.500



 *****  ANSYS SOLUTION ROUTINE  *****


  Local memory allocated for solver              =      5.689 MB
  Local memory required for in-core solution     =      5.058 MB
  Local memory required for out-of-core solution =      2.917 MB

 *** NOTE ***                            CP =       6.625   TIME= 14:27:00
 The Distributed Sparse Matrix Solver is currently running in the        
 in-core memory mode.  This memory mode uses the most amount of memory   
 in order to avoid using the hard drive as much as possible, which most  
 often results in the fastest solution time.  This mode is recommended   
 if enough physical memory is present to accommodate all of the solver   
 data.                                                                   

   *** ELEMENT RESULT CALCULATION TIMES
     TYPE    NUMBER   ENAME      TOTAL CP  AVE CP

        1      4986  PLANE182      0.109   0.000022

   *** NODAL LOAD CALCULATION TIMES
     TYPE    NUMBER   ENAME      TOTAL CP  AVE CP

        1      4986  PLANE182      0.047   0.000009
 *** LOAD STEP     1   SUBSTEP     1  COMPLETED.    CUM ITER =      1
 *** TIME =   1.00000         TIME INC =   1.00000      NEW TRIANG MATRIX


 *** ANSYS BINARY FILE STATISTICS
  BUFFER SIZE USED= 16384
        0.938 MB WRITTEN ON ASSEMBLED MATRIX FILE: GainData_3_12_1.full
        1.688 MB WRITTEN ON RESULTS FILE: GainData_3_12_1.rst

 FINISH SOLUTION PROCESSING


 ***** ROUTINE COMPLETED *****  CP =         6.953



 CLEAR DATABASE AND RERUN START.ANS

 ANSYS Mechanical Enterprise                       

 *****  ANSYS SOLUTION ROUTINE  *****

 FINISH SOLUTION PROCESSING


 ***** ROUTINE COMPLETED *****  CP =         6.984



 *****  ANSYS SOLUTION ROUTINE  *****

 FINISH SOLUTION PROCESSING


 ***** ROUTINE COMPLETED *****  CP =         6.984



 *****  ANSYS SOLUTION ROUTINE  *****


  Local memory allocated for solver              =      6.800 MB
  Local memory required for in-core solution     =      6.035 MB
  Local memory required for out-of-core solution =      3.319 MB

 *** NOTE ***                            CP =       7.094   TIME= 14:27:03
 The Distributed Sparse Matrix Solver is currently running in the        
 in-core memory mode.  This memory mode uses the most amount of memory   
 in order to avoid using the hard drive as much as possible, which most  
 often results in the fastest solution time.  This mode is recommended   
 if enough physical memory is present to accommodate all of the solver   
 data.                                                                   

   *** ELEMENT RESULT CALCULATION TIMES
     TYPE    NUMBER   ENAME      TOTAL CP  AVE CP

        1      5523  PLANE182      0.156   0.000028

   *** NODAL LOAD CALCULATION TIMES
     TYPE    NUMBER   ENAME      TOTAL CP  AVE CP

        1      5523  PLANE182      0.047   0.000008
 *** LOAD STEP     1   SUBSTEP     1  COMPLETED.    CUM ITER =      1
 *** TIME =   1.00000         TIME INC =   1.00000      NEW TRIANG MATRIX


 *** ANSYS BINARY FILE STATISTICS
  BUFFER SIZE USED= 16384
        1.000 MB WRITTEN ON ASSEMBLED MATRIX FILE: GainData_3_12_1.full
        1.812 MB WRITTEN ON RESULTS FILE: GainData_3_12_1.rst

 FINISH SOLUTION PROCESSING


 ***** ROUTINE COMPLETED *****  CP =         7.422



 CLEAR DATABASE AND RERUN START.ANS

 ANSYS Mechanical Enterprise                       

 *****  ANSYS SOLUTION ROUTINE  *****

 FINISH SOLUTION PROCESSING


 ***** ROUTINE COMPLETED *****  CP =         7.438



 *****  ANSYS SOLUTION ROUTINE  *****

 FINISH SOLUTION PROCESSING


 ***** ROUTINE COMPLETED *****  CP =         7.438



 *****  ANSYS SOLUTION ROUTINE  *****


  Local memory allocated for solver              =      6.569 MB
  Local memory required for in-core solution     =      5.832 MB
  Local memory required for out-of-core solution =      3.173 MB

 *** NOTE ***                            CP =       7.547   TIME= 14:27:06
 The Distributed Sparse Matrix Solver is currently running in the        
 in-core memory mode.  This memory mode uses the most amount of memory   
 in order to avoid using the hard drive as much as possible, which most  
 often results in the fastest solution time.  This mode is recommended   
 if enough physical memory is present to accommodate all of the solver   
 data.                                                                   

   *** ELEMENT RESULT CALCULATION TIMES
     TYPE    NUMBER   ENAME      TOTAL CP  AVE CP

        1      5294  PLANE182      0.094   0.000018

   *** NODAL LOAD CALCULATION TIMES
     TYPE    NUMBER   ENAME      TOTAL CP  AVE CP

        1      5294  PLANE182      0.109   0.000021
 *** LOAD STEP     1   SUBSTEP     1  COMPLETED.    CUM ITER =      1
 *** TIME =   1.00000         TIME INC =   1.00000      NEW TRIANG MATRIX


 *** ANSYS BINARY FILE STATISTICS
  BUFFER SIZE USED= 16384
        1.000 MB WRITTEN ON ASSEMBLED MATRIX FILE: GainData_3_12_1.full
        1.750 MB WRITTEN ON RESULTS FILE: GainData_3_12_1.rst

 FINISH SOLUTION PROCESSING


 ***** ROUTINE COMPLETED *****  CP =         7.906



 CLEAR DATABASE AND RERUN START.ANS

 ANSYS Mechanical Enterprise                       

 *****  ANSYS SOLUTION ROUTINE  *****

 FINISH SOLUTION PROCESSING


 ***** ROUTINE COMPLETED *****  CP =         7.938



 *****  ANSYS SOLUTION ROUTINE  *****

 FINISH SOLUTION PROCESSING


 ***** ROUTINE COMPLETED *****  CP =         7.938



 *****  ANSYS SOLUTION ROUTINE  *****


  Local memory allocated for solver              =      6.516 MB
  Local memory required for in-core solution     =      5.782 MB
  Local memory required for out-of-core solution =      3.130 MB

 *** NOTE ***                            CP =       8.047   TIME= 14:27:10
 The Distributed Sparse Matrix Solver is currently running in the        
 in-core memory mode.  This memory mode uses the most amount of memory   
 in order to avoid using the hard drive as much as possible, which most  
 often results in the fastest solution time.  This mode is recommended   
 if enough physical memory is present to accommodate all of the solver   
 data.                                                                   

   *** ELEMENT RESULT CALCULATION TIMES
     TYPE    NUMBER   ENAME      TOTAL CP  AVE CP

        1      5238  PLANE182      0.141   0.000027

   *** NODAL LOAD CALCULATION TIMES
     TYPE    NUMBER   ENAME      TOTAL CP  AVE CP

        1      5238  PLANE182      0.062   0.000012
 *** LOAD STEP     1   SUBSTEP     1  COMPLETED.    CUM ITER =      1
 *** TIME =   1.00000         TIME INC =   1.00000      NEW TRIANG MATRIX


 *** ANSYS BINARY FILE STATISTICS
  BUFFER SIZE USED= 16384
        0.938 MB WRITTEN ON ASSEMBLED MATRIX FILE: GainData_3_12_1.full
        1.750 MB WRITTEN ON RESULTS FILE: GainData_3_12_1.rst

 FINISH SOLUTION PROCESSING


 ***** ROUTINE COMPLETED *****  CP =         8.422



 CLEAR DATABASE AND RERUN START.ANS

 ANSYS Mechanical Enterprise                       

 *****  ANSYS SOLUTION ROUTINE  *****

 FINISH SOLUTION PROCESSING


 ***** ROUTINE COMPLETED *****  CP =         8.453



 *****  ANSYS SOLUTION ROUTINE  *****

 FINISH SOLUTION PROCESSING


 ***** ROUTINE COMPLETED *****  CP =         8.453



 *****  ANSYS SOLUTION ROUTINE  *****

 FINISH SOLUTION PROCESSING


 ***** ROUTINE COMPLETED *****  CP =         8.453



 *****  ANSYS SOLUTION ROUTINE  *****


  Local memory allocated for solver              =      6.547 MB
  Local memory required for in-core solution     =      5.812 MB
  Local memory required for out-of-core solution =      3.187 MB

 *** NOTE ***                            CP =       8.594   TIME= 14:27:13
 The Distributed Sparse Matrix Solver is currently running in the        
 in-core memory mode.  This memory mode uses the most amount of memory   
 in order to avoid using the hard drive as much as possible, which most  
 often results in the fastest solution time.  This mode is recommended   
 if enough physical memory is present to accommodate all of the solver   
 data.                                                                   

   *** ELEMENT RESULT CALCULATION TIMES
     TYPE    NUMBER   ENAME      TOTAL CP  AVE CP

        1      5201  PLANE182      0.156   0.000030

   *** NODAL LOAD CALCULATION TIMES
     TYPE    NUMBER   ENAME      TOTAL CP  AVE CP

        1      5201  PLANE182      0.047   0.000009
 *** LOAD STEP     1   SUBSTEP     1  COMPLETED.    CUM ITER =      1
 *** TIME =   1.00000         TIME INC =   1.00000      NEW TRIANG MATRIX


 *** ANSYS BINARY FILE STATISTICS
  BUFFER SIZE USED= 16384
        1.000 MB WRITTEN ON ASSEMBLED MATRIX FILE: GainData_3_12_1.full
        1.750 MB WRITTEN ON RESULTS FILE: GainData_3_12_1.rst

 FINISH SOLUTION PROCESSING


 ***** ROUTINE COMPLETED *****  CP =         8.906



 CLEAR DATABASE AND RERUN START.ANS

 ANSYS Mechanical Enterprise                       

 *****  ANSYS SOLUTION ROUTINE  *****

 FINISH SOLUTION PROCESSING


 ***** ROUTINE COMPLETED *****  CP =         8.906



 *****  ANSYS SOLUTION ROUTINE  *****

 FINISH SOLUTION PROCESSING


 ***** ROUTINE COMPLETED *****  CP =         8.906



 *****  ANSYS SOLUTION ROUTINE  *****

 FINISH SOLUTION PROCESSING


 ***** ROUTINE COMPLETED *****  CP =         8.906



 *****  ANSYS SOLUTION ROUTINE  *****


  Local memory allocated for solver              =      6.076 MB
  Local memory required for in-core solution     =      5.395 MB
  Local memory required for out-of-core solution =      2.996 MB

 *** NOTE ***                            CP =       9.047   TIME= 14:27:16
 The Distributed Sparse Matrix Solver is currently running in the        
 in-core memory mode.  This memory mode uses the most amount of memory   
 in order to avoid using the hard drive as much as possible, which most  
 often results in the fastest solution time.  This mode is recommended   
 if enough physical memory is present to accommodate all of the solver   
 data.                                                                   

   *** ELEMENT RESULT CALCULATION TIMES
     TYPE    NUMBER   ENAME      TOTAL CP  AVE CP

        1      4975  PLANE182      0.188   0.000038

   *** NODAL LOAD CALCULATION TIMES
     TYPE    NUMBER   ENAME      TOTAL CP  AVE CP

        1      4975  PLANE182      0.000   0.000000
 *** LOAD STEP     1   SUBSTEP     1  COMPLETED.    CUM ITER =      1
 *** TIME =   1.00000         TIME INC =   1.00000      NEW TRIANG MATRIX


 *** ANSYS BINARY FILE STATISTICS
  BUFFER SIZE USED= 16384
        0.938 MB WRITTEN ON ASSEMBLED MATRIX FILE: GainData_3_12_1.full
        1.688 MB WRITTEN ON RESULTS FILE: GainData_3_12_1.rst

 FINISH SOLUTION PROCESSING


 ***** ROUTINE COMPLETED *****  CP =         9.438



 CLEAR DATABASE AND RERUN START.ANS

 ANSYS Mechanical Enterprise                       

 *****  ANSYS SOLUTION ROUTINE  *****

 FINISH SOLUTION PROCESSING


 ***** ROUTINE COMPLETED *****  CP =         9.484



 *****  ANSYS SOLUTION ROUTINE  *****

 FINISH SOLUTION PROCESSING


 ***** ROUTINE COMPLETED *****  CP =         9.484



 *****  ANSYS SOLUTION ROUTINE  *****

 FINISH SOLUTION PROCESSING


 ***** ROUTINE COMPLETED *****  CP =         9.484



 *****  ANSYS SOLUTION ROUTINE  *****


  Local memory allocated for solver              =      5.733 MB
  Local memory required for in-core solution     =      5.098 MB
  Local memory required for out-of-core solution =      2.943 MB

 *** NOTE ***                            CP =       9.578   TIME= 14:27:19
 The Distributed Sparse Matrix Solver is currently running in the        
 in-core memory mode.  This memory mode uses the most amount of memory   
 in order to avoid using the hard drive as much as possible, which most  
 often results in the fastest solution time.  This mode is recommended   
 if enough physical memory is present to accommodate all of the solver   
 data.                                                                   

   *** ELEMENT RESULT CALCULATION TIMES
     TYPE    NUMBER   ENAME      TOTAL CP  AVE CP

        1      5085  PLANE182      0.125   0.000025

   *** NODAL LOAD CALCULATION TIMES
     TYPE    NUMBER   ENAME      TOTAL CP  AVE CP

        1      5085  PLANE182      0.078   0.000015
 *** LOAD STEP     1   SUBSTEP     1  COMPLETED.    CUM ITER =      1
 *** TIME =   1.00000         TIME INC =   1.00000      NEW TRIANG MATRIX


 *** ANSYS BINARY FILE STATISTICS
  BUFFER SIZE USED= 16384
        0.938 MB WRITTEN ON ASSEMBLED MATRIX FILE: GainData_3_12_1.full
        1.688 MB WRITTEN ON RESULTS FILE: GainData_3_12_1.rst

 FINISH SOLUTION PROCESSING


 ***** ROUTINE COMPLETED *****  CP =         9.953



 CLEAR DATABASE AND RERUN START.ANS

 ANSYS Mechanical Enterprise                       

 *****  ANSYS SOLUTION ROUTINE  *****

 FINISH SOLUTION PROCESSING


 ***** ROUTINE COMPLETED *****  CP =         9.969



 *****  ANSYS SOLUTION ROUTINE  *****

 FINISH SOLUTION PROCESSING


 ***** ROUTINE COMPLETED *****  CP =         9.969



 *****  ANSYS SOLUTION ROUTINE  *****

 FINISH SOLUTION PROCESSING


 ***** ROUTINE COMPLETED *****  CP =         9.969



 *****  ANSYS SOLUTION ROUTINE  *****


  Local memory allocated for solver              =      6.281 MB
  Local memory required for in-core solution     =      5.579 MB
  Local memory required for out-of-core solution =      3.122 MB

 *** NOTE ***                            CP =      10.109   TIME= 14:27:23
 The Distributed Sparse Matrix Solver is currently running in the        
 in-core memory mode.  This memory mode uses the most amount of memory   
 in order to avoid using the hard drive as much as possible, which most  
 often results in the fastest solution time.  This mode is recommended   
 if enough physical memory is present to accommodate all of the solver   
 data.                                                                   

   *** ELEMENT RESULT CALCULATION TIMES
     TYPE    NUMBER   ENAME      TOTAL CP  AVE CP

        1      5165  PLANE182      0.141   0.000027

   *** NODAL LOAD CALCULATION TIMES
     TYPE    NUMBER   ENAME      TOTAL CP  AVE CP

        1      5165  PLANE182      0.047   0.000009
 *** LOAD STEP     1   SUBSTEP     1  COMPLETED.    CUM ITER =      1
 *** TIME =   1.00000         TIME INC =   1.00000      NEW TRIANG MATRIX


 *** ANSYS BINARY FILE STATISTICS
  BUFFER SIZE USED= 16384
        0.938 MB WRITTEN ON ASSEMBLED MATRIX FILE: GainData_3_12_1.full
        1.688 MB WRITTEN ON RESULTS FILE: GainData_3_12_1.rst

 FINISH SOLUTION PROCESSING


 ***** ROUTINE COMPLETED *****  CP =        10.406



 CLEAR DATABASE AND RERUN START.ANS

 ANSYS Mechanical Enterprise                       

 *****  ANSYS SOLUTION ROUTINE  *****

 FINISH SOLUTION PROCESSING


 ***** ROUTINE COMPLETED *****  CP =        10.422



 *****  ANSYS SOLUTION ROUTINE  *****

 FINISH SOLUTION PROCESSING


 ***** ROUTINE COMPLETED *****  CP =        10.422



 *****  ANSYS SOLUTION ROUTINE  *****

 FINISH SOLUTION PROCESSING


 ***** ROUTINE COMPLETED *****  CP =        10.422



 *****  ANSYS SOLUTION ROUTINE  *****


  Local memory allocated for solver              =      6.160 MB
  Local memory required for in-core solution     =      5.473 MB
  Local memory required for out-of-core solution =      3.069 MB

 *** NOTE ***                            CP =      10.562   TIME= 14:27:26
 The Distributed Sparse Matrix Solver is currently running in the        
 in-core memory mode.  This memory mode uses the most amount of memory   
 in order to avoid using the hard drive as much as possible, which most  
 often results in the fastest solution time.  This mode is recommended   
 if enough physical memory is present to accommodate all of the solver   
 data.                                                                   

   *** ELEMENT RESULT CALCULATION TIMES
     TYPE    NUMBER   ENAME      TOTAL CP  AVE CP

        1      5103  PLANE182      0.172   0.000034

   *** NODAL LOAD CALCULATION TIMES
     TYPE    NUMBER   ENAME      TOTAL CP  AVE CP

        1      5103  PLANE182      0.016   0.000003
 *** LOAD STEP     1   SUBSTEP     1  COMPLETED.    CUM ITER =      1
 *** TIME =   1.00000         TIME INC =   1.00000      NEW TRIANG MATRIX


 *** ANSYS BINARY FILE STATISTICS
  BUFFER SIZE USED= 16384
        0.938 MB WRITTEN ON ASSEMBLED MATRIX FILE: GainData_3_12_1.full
        1.688 MB WRITTEN ON RESULTS FILE: GainData_3_12_1.rst

 FINISH SOLUTION PROCESSING


 ***** ROUTINE COMPLETED *****  CP =        10.891



 CLEAR DATABASE AND RERUN START.ANS

 ANSYS Mechanical Enterprise                       

 *****  ANSYS SOLUTION ROUTINE  *****

 FINISH SOLUTION PROCESSING


 ***** ROUTINE COMPLETED *****  CP =        10.906



 *****  ANSYS SOLUTION ROUTINE  *****

 FINISH SOLUTION PROCESSING


 ***** ROUTINE COMPLETED *****  CP =        10.906



 *****  ANSYS SOLUTION ROUTINE  *****

 FINISH SOLUTION PROCESSING


 ***** ROUTINE COMPLETED *****  CP =        10.906



 *****  ANSYS SOLUTION ROUTINE  *****


  Local memory allocated for solver              =      5.738 MB
  Local memory required for in-core solution     =      5.101 MB
  Local memory required for out-of-core solution =      2.917 MB

 *** NOTE ***                            CP =      11.047   TIME= 14:27:30
 The Distributed Sparse Matrix Solver is currently running in the        
 in-core memory mode.  This memory mode uses the most amount of memory   
 in order to avoid using the hard drive as much as possible, which most  
 often results in the fastest solution time.  This mode is recommended   
 if enough physical memory is present to accommodate all of the solver   
 data.                                                                   

   *** ELEMENT RESULT CALCULATION TIMES
     TYPE    NUMBER   ENAME      TOTAL CP  AVE CP

        1      5025  PLANE182      0.156   0.000031

   *** NODAL LOAD CALCULATION TIMES
     TYPE    NUMBER   ENAME      TOTAL CP  AVE CP

        1      5025  PLANE182      0.031   0.000006
 *** LOAD STEP     1   SUBSTEP     1  COMPLETED.    CUM ITER =      1
 *** TIME =   1.00000         TIME INC =   1.00000      NEW TRIANG MATRIX


 *** ANSYS BINARY FILE STATISTICS
  BUFFER SIZE USED= 16384
        0.938 MB WRITTEN ON ASSEMBLED MATRIX FILE: GainData_3_12_1.full
        1.688 MB WRITTEN ON RESULTS FILE: GainData_3_12_1.rst

 FINISH SOLUTION PROCESSING


 ***** ROUTINE COMPLETED *****  CP =        11.422



 CLEAR DATABASE AND RERUN START.ANS

 ANSYS Mechanical Enterprise                       

 *****  ANSYS SOLUTION ROUTINE  *****

 FINISH SOLUTION PROCESSING


 ***** ROUTINE COMPLETED *****  CP =        11.453



 *****  ANSYS SOLUTION ROUTINE  *****

 FINISH SOLUTION PROCESSING


 ***** ROUTINE COMPLETED *****  CP =        11.453



 *****  ANSYS SOLUTION ROUTINE  *****

 FINISH SOLUTION PROCESSING


 ***** ROUTINE COMPLETED *****  CP =        11.453



 *****  ANSYS SOLUTION ROUTINE  *****


  Local memory allocated for solver              =      5.920 MB
  Local memory required for in-core solution     =      5.264 MB
  Local memory required for out-of-core solution =      3.010 MB

 *** NOTE ***                            CP =      11.609   TIME= 14:27:33
 The Distributed Sparse Matrix Solver is currently running in the        
 in-core memory mode.  This memory mode uses the most amount of memory   
 in order to avoid using the hard drive as much as possible, which most  
 often results in the fastest solution time.  This mode is recommended   
 if enough physical memory is present to accommodate all of the solver   
 data.                                                                   

   *** ELEMENT RESULT CALCULATION TIMES
     TYPE    NUMBER   ENAME      TOTAL CP  AVE CP

        1      5110  PLANE182      0.172   0.000034

   *** NODAL LOAD CALCULATION TIMES
     TYPE    NUMBER   ENAME      TOTAL CP  AVE CP

        1      5110  PLANE182      0.047   0.000009
 *** LOAD STEP     1   SUBSTEP     1  COMPLETED.    CUM ITER =      1
 *** TIME =   1.00000         TIME INC =   1.00000      NEW TRIANG MATRIX


 *** ANSYS BINARY FILE STATISTICS
  BUFFER SIZE USED= 16384
        0.938 MB WRITTEN ON ASSEMBLED MATRIX FILE: GainData_3_12_1.full
        1.688 MB WRITTEN ON RESULTS FILE: GainData_3_12_1.rst

 FINISH SOLUTION PROCESSING


 ***** ROUTINE COMPLETED *****  CP =        12.031



 CLEAR DATABASE AND RERUN START.ANS

 ANSYS Mechanical Enterprise                       

 *****  ANSYS SOLUTION ROUTINE  *****

 FINISH SOLUTION PROCESSING


 ***** ROUTINE COMPLETED *****  CP =        12.078



 *****  ANSYS SOLUTION ROUTINE  *****

 FINISH SOLUTION PROCESSING


 ***** ROUTINE COMPLETED *****  CP =        12.078



 *****  ANSYS SOLUTION ROUTINE  *****

 FINISH SOLUTION PROCESSING


 ***** ROUTINE COMPLETED *****  CP =        12.078



 *****  ANSYS SOLUTION ROUTINE  *****


  Local memory allocated for solver              =      6.179 MB
  Local memory required for in-core solution     =      5.489 MB
  Local memory required for out-of-core solution =      3.078 MB

 *** NOTE ***                            CP =      12.188   TIME= 14:27:37
 The Distributed Sparse Matrix Solver is currently running in the        
 in-core memory mode.  This memory mode uses the most amount of memory   
 in order to avoid using the hard drive as much as possible, which most  
 often results in the fastest solution time.  This mode is recommended   
 if enough physical memory is present to accommodate all of the solver   
 data.                                                                   

   *** ELEMENT RESULT CALCULATION TIMES
     TYPE    NUMBER   ENAME      TOTAL CP  AVE CP

        1      5162  PLANE182      0.094   0.000018

   *** NODAL LOAD CALCULATION TIMES
     TYPE    NUMBER   ENAME      TOTAL CP  AVE CP

        1      5162  PLANE182      0.078   0.000015
 *** LOAD STEP     1   SUBSTEP     1  COMPLETED.    CUM ITER =      1
 *** TIME =   1.00000         TIME INC =   1.00000      NEW TRIANG MATRIX


 *** ANSYS BINARY FILE STATISTICS
  BUFFER SIZE USED= 16384
        0.938 MB WRITTEN ON ASSEMBLED MATRIX FILE: GainData_3_12_1.full
        1.688 MB WRITTEN ON RESULTS FILE: GainData_3_12_1.rst

 FINISH SOLUTION PROCESSING


 ***** ROUTINE COMPLETED *****  CP =        12.578



 CLEAR DATABASE AND RERUN START.ANS

 ANSYS Mechanical Enterprise                       

 *****  ANSYS SOLUTION ROUTINE  *****

 FINISH SOLUTION PROCESSING


 ***** ROUTINE COMPLETED *****  CP =        12.609



 *****  ANSYS SOLUTION ROUTINE  *****

 FINISH SOLUTION PROCESSING


 ***** ROUTINE COMPLETED *****  CP =        12.609



 *****  ANSYS SOLUTION ROUTINE  *****

 FINISH SOLUTION PROCESSING


 ***** ROUTINE COMPLETED *****  CP =        12.609



 *****  ANSYS SOLUTION ROUTINE  *****


  Local memory allocated for solver              =      6.112 MB
  Local memory required for in-core solution     =      5.426 MB
  Local memory required for out-of-core solution =      3.006 MB

 *** NOTE ***                            CP =      12.969   TIME= 14:27:40
 The Distributed Sparse Matrix Solver is currently running in the        
 in-core memory mode.  This memory mode uses the most amount of memory   
 in order to avoid using the hard drive as much as possible, which most  
 often results in the fastest solution time.  This mode is recommended   
 if enough physical memory is present to accommodate all of the solver   
 data.                                                                   

   *** ELEMENT RESULT CALCULATION TIMES
     TYPE    NUMBER   ENAME      TOTAL CP  AVE CP

        1      5009  PLANE182      0.156   0.000031

   *** NODAL LOAD CALCULATION TIMES
     TYPE    NUMBER   ENAME      TOTAL CP  AVE CP

        1      5009  PLANE182      0.047   0.000009
 *** LOAD STEP     1   SUBSTEP     1  COMPLETED.    CUM ITER =      1
 *** TIME =   1.00000         TIME INC =   1.00000      NEW TRIANG MATRIX


 *** ANSYS BINARY FILE STATISTICS
  BUFFER SIZE USED= 16384
        0.938 MB WRITTEN ON ASSEMBLED MATRIX FILE: GainData_3_12_1.full
        1.688 MB WRITTEN ON RESULTS FILE: GainData_3_12_1.rst

 FINISH SOLUTION PROCESSING


 ***** ROUTINE COMPLETED *****  CP =        13.344



 CLEAR DATABASE AND RERUN START.ANS

 ANSYS Mechanical Enterprise                       

 *****  ANSYS SOLUTION ROUTINE  *****

 FINISH SOLUTION PROCESSING


 ***** ROUTINE COMPLETED *****  CP =        13.375



 *****  ANSYS SOLUTION ROUTINE  *****

 FINISH SOLUTION PROCESSING


 ***** ROUTINE COMPLETED *****  CP =        13.375



 *****  ANSYS SOLUTION ROUTINE  *****

 FINISH SOLUTION PROCESSING


 ***** ROUTINE COMPLETED *****  CP =        13.375



 *****  ANSYS SOLUTION ROUTINE  *****


  Local memory allocated for solver              =      6.387 MB
  Local memory required for in-core solution     =      5.675 MB
  Local memory required for out-of-core solution =      3.188 MB

 *** NOTE ***                            CP =      13.516   TIME= 14:27:44
 The Distributed Sparse Matrix Solver is currently running in the        
 in-core memory mode.  This memory mode uses the most amount of memory   
 in order to avoid using the hard drive as much as possible, which most  
 often results in the fastest solution time.  This mode is recommended   
 if enough physical memory is present to accommodate all of the solver   
 data.                                                                   

   *** ELEMENT RESULT CALCULATION TIMES
     TYPE    NUMBER   ENAME      TOTAL CP  AVE CP

        1      5424  PLANE182      0.109   0.000020

   *** NODAL LOAD CALCULATION TIMES
     TYPE    NUMBER   ENAME      TOTAL CP  AVE CP

        1      5424  PLANE182      0.047   0.000009
 *** LOAD STEP     1   SUBSTEP     1  COMPLETED.    CUM ITER =      1
 *** TIME =   1.00000         TIME INC =   1.00000      NEW TRIANG MATRIX


 *** ANSYS BINARY FILE STATISTICS
  BUFFER SIZE USED= 16384
        1.000 MB WRITTEN ON ASSEMBLED MATRIX FILE: GainData_3_12_1.full
        1.812 MB WRITTEN ON RESULTS FILE: GainData_3_12_1.rst

 FINISH SOLUTION PROCESSING


 ***** ROUTINE COMPLETED *****  CP =        13.781



 CLEAR DATABASE AND RERUN START.ANS

 ANSYS Mechanical Enterprise                       

 *****  ANSYS SOLUTION ROUTINE  *****

 FINISH SOLUTION PROCESSING


 ***** ROUTINE COMPLETED *****  CP =        13.812



 *****  ANSYS SOLUTION ROUTINE  *****

 FINISH SOLUTION PROCESSING


 ***** ROUTINE COMPLETED *****  CP =        13.812



 *****  ANSYS SOLUTION ROUTINE  *****

 FINISH SOLUTION PROCESSING


 ***** ROUTINE COMPLETED *****  CP =        13.812



 *****  ANSYS SOLUTION ROUTINE  *****


  Local memory allocated for solver              =      6.273 MB
  Local memory required for in-core solution     =      5.568 MB
  Local memory required for out-of-core solution =      3.056 MB

 *** NOTE ***                            CP =      13.953   TIME= 14:27:47
 The Distributed Sparse Matrix Solver is currently running in the        
 in-core memory mode.  This memory mode uses the most amount of memory   
 in order to avoid using the hard drive as much as possible, which most  
 often results in the fastest solution time.  This mode is recommended   
 if enough physical memory is present to accommodate all of the solver   
 data.                                                                   

   *** ELEMENT RESULT CALCULATION TIMES
     TYPE    NUMBER   ENAME      TOTAL CP  AVE CP

        1      5085  PLANE182      0.156   0.000031

   *** NODAL LOAD CALCULATION TIMES
     TYPE    NUMBER   ENAME      TOTAL CP  AVE CP

        1      5085  PLANE182      0.062   0.000012
 *** LOAD STEP     1   SUBSTEP     1  COMPLETED.    CUM ITER =      1
 *** TIME =   1.00000         TIME INC =   1.00000      NEW TRIANG MATRIX


 *** ANSYS BINARY FILE STATISTICS
  BUFFER SIZE USED= 16384
        0.938 MB WRITTEN ON ASSEMBLED MATRIX FILE: GainData_3_12_1.full
        1.688 MB WRITTEN ON RESULTS FILE: GainData_3_12_1.rst

 FINISH SOLUTION PROCESSING


 ***** ROUTINE COMPLETED *****  CP =        14.219



 CLEAR DATABASE AND RERUN START.ANS

 ANSYS Mechanical Enterprise                       

 *****  ANSYS SOLUTION ROUTINE  *****

 FINISH SOLUTION PROCESSING


 ***** ROUTINE COMPLETED *****  CP =        14.250



 *****  ANSYS SOLUTION ROUTINE  *****

 FINISH SOLUTION PROCESSING


 ***** ROUTINE COMPLETED *****  CP =        14.250



 *****  ANSYS SOLUTION ROUTINE  *****


  Local memory allocated for solver              =      6.517 MB
  Local memory required for in-core solution     =      5.786 MB
  Local memory required for out-of-core solution =      3.156 MB

 *** NOTE ***                            CP =      14.578   TIME= 14:27:50
 The Distributed Sparse Matrix Solver is currently running in the        
 in-core memory mode.  This memory mode uses the most amount of memory   
 in order to avoid using the hard drive as much as possible, which most  
 often results in the fastest solution time.  This mode is recommended   
 if enough physical memory is present to accommodate all of the solver   
 data.                                                                   

   *** ELEMENT RESULT CALCULATION TIMES
     TYPE    NUMBER   ENAME      TOTAL CP  AVE CP

        1      5249  PLANE182      0.172   0.000033

   *** NODAL LOAD CALCULATION TIMES
     TYPE    NUMBER   ENAME      TOTAL CP  AVE CP

        1      5249  PLANE182      0.062   0.000012
 *** LOAD STEP     1   SUBSTEP     1  COMPLETED.    CUM ITER =      1
 *** TIME =   1.00000         TIME INC =   1.00000      NEW TRIANG MATRIX


 *** ANSYS BINARY FILE STATISTICS
  BUFFER SIZE USED= 16384
        1.000 MB WRITTEN ON ASSEMBLED MATRIX FILE: GainData_3_12_1.full
        1.750 MB WRITTEN ON RESULTS FILE: GainData_3_12_1.rst

 FINISH SOLUTION PROCESSING


 ***** ROUTINE COMPLETED *****  CP =        15.000



 CLEAR DATABASE AND RERUN START.ANS

 ANSYS Mechanical Enterprise                       

 *****  ANSYS SOLUTION ROUTINE  *****

 FINISH SOLUTION PROCESSING


 ***** ROUTINE COMPLETED *****  CP =        15.016



 *****  ANSYS SOLUTION ROUTINE  *****

 FINISH SOLUTION PROCESSING


 ***** ROUTINE COMPLETED *****  CP =        15.016



 *****  ANSYS SOLUTION ROUTINE  *****

 FINISH SOLUTION PROCESSING


 ***** ROUTINE COMPLETED *****  CP =        15.016



 *****  ANSYS SOLUTION ROUTINE  *****


  Local memory allocated for solver              =      5.989 MB
  Local memory required for in-core solution     =      5.327 MB
  Local memory required for out-of-core solution =      3.070 MB

 *** NOTE ***                            CP =      15.141   TIME= 14:27:54
 The Distributed Sparse Matrix Solver is currently running in the        
 in-core memory mode.  This memory mode uses the most amount of memory   
 in order to avoid using the hard drive as much as possible, which most  
 often results in the fastest solution time.  This mode is recommended   
 if enough physical memory is present to accommodate all of the solver   
 data.                                                                   

   *** ELEMENT RESULT CALCULATION TIMES
     TYPE    NUMBER   ENAME      TOTAL CP  AVE CP

        1      5256  PLANE182      0.125   0.000024

   *** NODAL LOAD CALCULATION TIMES
     TYPE    NUMBER   ENAME      TOTAL CP  AVE CP

        1      5256  PLANE182      0.062   0.000012
 *** LOAD STEP     1   SUBSTEP     1  COMPLETED.    CUM ITER =      1
 *** TIME =   1.00000         TIME INC =   1.00000      NEW TRIANG MATRIX


 *** ANSYS BINARY FILE STATISTICS
  BUFFER SIZE USED= 16384
        1.000 MB WRITTEN ON ASSEMBLED MATRIX FILE: GainData_3_12_1.full
        1.750 MB WRITTEN ON RESULTS FILE: GainData_3_12_1.rst

 FINISH SOLUTION PROCESSING


 ***** ROUTINE COMPLETED *****  CP =        15.406



 CLEAR DATABASE AND RERUN START.ANS

 ANSYS Mechanical Enterprise                       

 *****  ANSYS SOLUTION ROUTINE  *****

 FINISH SOLUTION PROCESSING


 ***** ROUTINE COMPLETED *****  CP =        15.406



 *****  ANSYS SOLUTION ROUTINE  *****

 FINISH SOLUTION PROCESSING


 ***** ROUTINE COMPLETED *****  CP =        15.406



 *****  ANSYS SOLUTION ROUTINE  *****

 FINISH SOLUTION PROCESSING


 ***** ROUTINE COMPLETED *****  CP =        15.406



 *****  ANSYS SOLUTION ROUTINE  *****


  Local memory allocated for solver              =      6.334 MB
  Local memory required for in-core solution     =      5.628 MB
  Local memory required for out-of-core solution =      3.167 MB

 *** NOTE ***                            CP =      15.578   TIME= 14:27:57
 The Distributed Sparse Matrix Solver is currently running in the        
 in-core memory mode.  This memory mode uses the most amount of memory   
 in order to avoid using the hard drive as much as possible, which most  
 often results in the fastest solution time.  This mode is recommended   
 if enough physical memory is present to accommodate all of the solver   
 data.                                                                   

   *** ELEMENT RESULT CALCULATION TIMES
     TYPE    NUMBER   ENAME      TOTAL CP  AVE CP

        1      5304  PLANE182      0.141   0.000027

   *** NODAL LOAD CALCULATION TIMES
     TYPE    NUMBER   ENAME      TOTAL CP  AVE CP

        1      5304  PLANE182      0.078   0.000015
 *** LOAD STEP     1   SUBSTEP     1  COMPLETED.    CUM ITER =      1
 *** TIME =   1.00000         TIME INC =   1.00000      NEW TRIANG MATRIX


 *** ANSYS BINARY FILE STATISTICS
  BUFFER SIZE USED= 16384
        1.000 MB WRITTEN ON ASSEMBLED MATRIX FILE: GainData_3_12_1.full
        1.750 MB WRITTEN ON RESULTS FILE: GainData_3_12_1.rst

 FINISH SOLUTION PROCESSING


 ***** ROUTINE COMPLETED *****  CP =        15.938



 CLEAR DATABASE AND RERUN START.ANS

 ANSYS Mechanical Enterprise                       

 *****  ANSYS SOLUTION ROUTINE  *****

 FINISH SOLUTION PROCESSING


 ***** ROUTINE COMPLETED *****  CP =        15.984



 *****  ANSYS SOLUTION ROUTINE  *****

 FINISH SOLUTION PROCESSING


 ***** ROUTINE COMPLETED *****  CP =        15.984



 *****  ANSYS SOLUTION ROUTINE  *****

 FINISH SOLUTION PROCESSING


 ***** ROUTINE COMPLETED *****  CP =        15.984



 *****  ANSYS SOLUTION ROUTINE  *****


  Local memory allocated for solver              =      6.396 MB
  Local memory required for in-core solution     =      5.676 MB
  Local memory required for out-of-core solution =      3.102 MB

 *** NOTE ***                            CP =      16.094   TIME= 14:28:00
 The Distributed Sparse Matrix Solver is currently running in the        
 in-core memory mode.  This memory mode uses the most amount of memory   
 in order to avoid using the hard drive as much as possible, which most  
 often results in the fastest solution time.  This mode is recommended   
 if enough physical memory is present to accommodate all of the solver   
 data.                                                                   

   *** ELEMENT RESULT CALCULATION TIMES
     TYPE    NUMBER   ENAME      TOTAL CP  AVE CP

        1      5170  PLANE182      0.109   0.000021

   *** NODAL LOAD CALCULATION TIMES
     TYPE    NUMBER   ENAME      TOTAL CP  AVE CP

        1      5170  PLANE182      0.047   0.000009
 *** LOAD STEP     1   SUBSTEP     1  COMPLETED.    CUM ITER =      1
 *** TIME =   1.00000         TIME INC =   1.00000      NEW TRIANG MATRIX


 *** ANSYS BINARY FILE STATISTICS
  BUFFER SIZE USED= 16384
        0.938 MB WRITTEN ON ASSEMBLED MATRIX FILE: GainData_3_12_1.full
        1.688 MB WRITTEN ON RESULTS FILE: GainData_3_12_1.rst

 FINISH SOLUTION PROCESSING


 ***** ROUTINE COMPLETED *****  CP =        16.406



 CLEAR DATABASE AND RERUN START.ANS

 ANSYS Mechanical Enterprise                       

 *****  ANSYS SOLUTION ROUTINE  *****

 FINISH SOLUTION PROCESSING


 ***** ROUTINE COMPLETED *****  CP =        16.406



 *****  ANSYS SOLUTION ROUTINE  *****

 FINISH SOLUTION PROCESSING


 ***** ROUTINE COMPLETED *****  CP =        16.406



 *****  ANSYS SOLUTION ROUTINE  *****

 FINISH SOLUTION PROCESSING


 ***** ROUTINE COMPLETED *****  CP =        16.406



 *****  ANSYS SOLUTION ROUTINE  *****


  Local memory allocated for solver              =      6.255 MB
  Local memory required for in-core solution     =      5.552 MB
  Local memory required for out-of-core solution =      3.076 MB

 *** NOTE ***                            CP =      16.562   TIME= 14:28:04
 The Distributed Sparse Matrix Solver is currently running in the        
 in-core memory mode.  This memory mode uses the most amount of memory   
 in order to avoid using the hard drive as much as possible, which most  
 often results in the fastest solution time.  This mode is recommended   
 if enough physical memory is present to accommodate all of the solver   
 data.                                                                   

   *** ELEMENT RESULT CALCULATION TIMES
     TYPE    NUMBER   ENAME      TOTAL CP  AVE CP

        1      5081  PLANE182      0.156   0.000031

   *** NODAL LOAD CALCULATION TIMES
     TYPE    NUMBER   ENAME      TOTAL CP  AVE CP

        1      5081  PLANE182      0.062   0.000012
 *** LOAD STEP     1   SUBSTEP     1  COMPLETED.    CUM ITER =      1
 *** TIME =   1.00000         TIME INC =   1.00000      NEW TRIANG MATRIX


 *** ANSYS BINARY FILE STATISTICS
  BUFFER SIZE USED= 16384
        0.938 MB WRITTEN ON ASSEMBLED MATRIX FILE: GainData_3_12_1.full
        1.688 MB WRITTEN ON RESULTS FILE: GainData_3_12_1.rst

 FINISH SOLUTION PROCESSING


 ***** ROUTINE COMPLETED *****  CP =        16.875



 CLEAR DATABASE AND RERUN START.ANS

 ANSYS Mechanical Enterprise                       

 *****  ANSYS SOLUTION ROUTINE  *****

 FINISH SOLUTION PROCESSING


 ***** ROUTINE COMPLETED *****  CP =        16.891



 *****  ANSYS SOLUTION ROUTINE  *****

 FINISH SOLUTION PROCESSING


 ***** ROUTINE COMPLETED *****  CP =        16.891



 *****  ANSYS SOLUTION ROUTINE  *****

 FINISH SOLUTION PROCESSING


 ***** ROUTINE COMPLETED *****  CP =        16.891



 *****  ANSYS SOLUTION ROUTINE  *****


  Local memory allocated for solver              =      6.270 MB
  Local memory required for in-core solution     =      5.566 MB
  Local memory required for out-of-core solution =      3.096 MB

 *** NOTE ***                            CP =      17.016   TIME= 14:28:07
 The Distributed Sparse Matrix Solver is currently running in the        
 in-core memory mode.  This memory mode uses the most amount of memory   
 in order to avoid using the hard drive as much as possible, which most  
 often results in the fastest solution time.  This mode is recommended   
 if enough physical memory is present to accommodate all of the solver   
 data.                                                                   

   *** ELEMENT RESULT CALCULATION TIMES
     TYPE    NUMBER   ENAME      TOTAL CP  AVE CP

        1      5095  PLANE182      0.203   0.000040

   *** NODAL LOAD CALCULATION TIMES
     TYPE    NUMBER   ENAME      TOTAL CP  AVE CP

        1      5095  PLANE182      0.000   0.000000
 *** LOAD STEP     1   SUBSTEP     1  COMPLETED.    CUM ITER =      1
 *** TIME =   1.00000         TIME INC =   1.00000      NEW TRIANG MATRIX


 *** ANSYS BINARY FILE STATISTICS
  BUFFER SIZE USED= 16384
        0.938 MB WRITTEN ON ASSEMBLED MATRIX FILE: GainData_3_12_1.full
        1.688 MB WRITTEN ON RESULTS FILE: GainData_3_12_1.rst

 FINISH SOLUTION PROCESSING


 ***** ROUTINE COMPLETED *****  CP =        17.391



 CLEAR DATABASE AND RERUN START.ANS

 ANSYS Mechanical Enterprise                       

 *****  ANSYS SOLUTION ROUTINE  *****

 FINISH SOLUTION PROCESSING


 ***** ROUTINE COMPLETED *****  CP =        17.406



 *****  ANSYS SOLUTION ROUTINE  *****

 FINISH SOLUTION PROCESSING


 ***** ROUTINE COMPLETED *****  CP =        17.406



 *****  ANSYS SOLUTION ROUTINE  *****

 FINISH SOLUTION PROCESSING


 ***** ROUTINE COMPLETED *****  CP =        17.406



 *****  ANSYS SOLUTION ROUTINE  *****


  Local memory allocated for solver              =      6.453 MB
  Local memory required for in-core solution     =      5.730 MB
  Local memory required for out-of-core solution =      3.184 MB

 *** NOTE ***                            CP =      17.531   TIME= 14:28:10
 The Distributed Sparse Matrix Solver is currently running in the        
 in-core memory mode.  This memory mode uses the most amount of memory   
 in order to avoid using the hard drive as much as possible, which most  
 often results in the fastest solution time.  This mode is recommended   
 if enough physical memory is present to accommodate all of the solver   
 data.                                                                   

   *** ELEMENT RESULT CALCULATION TIMES
     TYPE    NUMBER   ENAME      TOTAL CP  AVE CP

        1      5183  PLANE182      0.125   0.000024

   *** NODAL LOAD CALCULATION TIMES
     TYPE    NUMBER   ENAME      TOTAL CP  AVE CP

        1      5183  PLANE182      0.078   0.000015
 *** LOAD STEP     1   SUBSTEP     1  COMPLETED.    CUM ITER =      1
 *** TIME =   1.00000         TIME INC =   1.00000      NEW TRIANG MATRIX


 *** ANSYS BINARY FILE STATISTICS
  BUFFER SIZE USED= 16384
        1.000 MB WRITTEN ON ASSEMBLED MATRIX FILE: GainData_3_12_1.full
        1.750 MB WRITTEN ON RESULTS FILE: GainData_3_12_1.rst

 FINISH SOLUTION PROCESSING


 ***** ROUTINE COMPLETED *****  CP =        17.828



 CLEAR DATABASE AND RERUN START.ANS

 ANSYS Mechanical Enterprise                       

 *****  ANSYS SOLUTION ROUTINE  *****

 FINISH SOLUTION PROCESSING


 ***** ROUTINE COMPLETED *****  CP =        17.875



 *****  ANSYS SOLUTION ROUTINE  *****

 FINISH SOLUTION PROCESSING


 ***** ROUTINE COMPLETED *****  CP =        17.875



 *****  ANSYS SOLUTION ROUTINE  *****

 FINISH SOLUTION PROCESSING


 ***** ROUTINE COMPLETED *****  CP =        17.875



 *****  ANSYS SOLUTION ROUTINE  *****


  Local memory allocated for solver              =      6.190 MB
  Local memory required for in-core solution     =      5.497 MB
  Local memory required for out-of-core solution =      3.039 MB

 *** NOTE ***                            CP =      18.031   TIME= 14:28:13
 The Distributed Sparse Matrix Solver is currently running in the        
 in-core memory mode.  This memory mode uses the most amount of memory   
 in order to avoid using the hard drive as much as possible, which most  
 often results in the fastest solution time.  This mode is recommended   
 if enough physical memory is present to accommodate all of the solver   
 data.                                                                   

   *** ELEMENT RESULT CALCULATION TIMES
     TYPE    NUMBER   ENAME      TOTAL CP  AVE CP

        1      5104  PLANE182      0.172   0.000034

   *** NODAL LOAD CALCULATION TIMES
     TYPE    NUMBER   ENAME      TOTAL CP  AVE CP

        1      5104  PLANE182      0.047   0.000009
 *** LOAD STEP     1   SUBSTEP     1  COMPLETED.    CUM ITER =      1
 *** TIME =   1.00000         TIME INC =   1.00000      NEW TRIANG MATRIX


 *** ANSYS BINARY FILE STATISTICS
  BUFFER SIZE USED= 16384
        0.938 MB WRITTEN ON ASSEMBLED MATRIX FILE: GainData_3_12_1.full
        1.688 MB WRITTEN ON RESULTS FILE: GainData_3_12_1.rst

 FINISH SOLUTION PROCESSING


 ***** ROUTINE COMPLETED *****  CP =        18.438



 CLEAR DATABASE AND RERUN START.ANS

 ANSYS Mechanical Enterprise                       

 *****  ANSYS SOLUTION ROUTINE  *****

 FINISH SOLUTION PROCESSING


 ***** ROUTINE COMPLETED *****  CP =        18.469



 *****  ANSYS SOLUTION ROUTINE  *****

 FINISH SOLUTION PROCESSING


 ***** ROUTINE COMPLETED *****  CP =        18.469



 *****  ANSYS SOLUTION ROUTINE  *****

 FINISH SOLUTION PROCESSING


 ***** ROUTINE COMPLETED *****  CP =        18.469



 *****  ANSYS SOLUTION ROUTINE  *****


  Local memory allocated for solver              =      6.375 MB
  Local memory required for in-core solution     =      5.659 MB
  Local memory required for out-of-core solution =      3.114 MB

 *** NOTE ***                            CP =      18.609   TIME= 14:28:17
 The Distributed Sparse Matrix Solver is currently running in the        
 in-core memory mode.  This memory mode uses the most amount of memory   
 in order to avoid using the hard drive as much as possible, which most  
 often results in the fastest solution time.  This mode is recommended   
 if enough physical memory is present to accommodate all of the solver   
 data.                                                                   

   *** ELEMENT RESULT CALCULATION TIMES
     TYPE    NUMBER   ENAME      TOTAL CP  AVE CP

        1      5207  PLANE182      0.141   0.000027

   *** NODAL LOAD CALCULATION TIMES
     TYPE    NUMBER   ENAME      TOTAL CP  AVE CP

        1      5207  PLANE182      0.031   0.000006
 *** LOAD STEP     1   SUBSTEP     1  COMPLETED.    CUM ITER =      1
 *** TIME =   1.00000         TIME INC =   1.00000      NEW TRIANG MATRIX


 *** ANSYS BINARY FILE STATISTICS
  BUFFER SIZE USED= 16384
        0.938 MB WRITTEN ON ASSEMBLED MATRIX FILE: GainData_3_12_1.full
        1.750 MB WRITTEN ON RESULTS FILE: GainData_3_12_1.rst

 FINISH SOLUTION PROCESSING


 ***** ROUTINE COMPLETED *****  CP =        19.031



 CLEAR DATABASE AND RERUN START.ANS

 ANSYS Mechanical Enterprise                       

 *****  ANSYS SOLUTION ROUTINE  *****

 FINISH SOLUTION PROCESSING


 ***** ROUTINE COMPLETED *****  CP =        19.047



 *****  ANSYS SOLUTION ROUTINE  *****

 FINISH SOLUTION PROCESSING


 ***** ROUTINE COMPLETED *****  CP =        19.047



 *****  ANSYS SOLUTION ROUTINE  *****

 FINISH SOLUTION PROCESSING


 ***** ROUTINE COMPLETED *****  CP =        19.047



 *****  ANSYS SOLUTION ROUTINE  *****


  Local memory allocated for solver              =      6.739 MB
  Local memory required for in-core solution     =      5.985 MB
  Local memory required for out-of-core solution =      3.266 MB

 *** NOTE ***                            CP =      19.172   TIME= 14:28:20
 The Distributed Sparse Matrix Solver is currently running in the        
 in-core memory mode.  This memory mode uses the most amount of memory   
 in order to avoid using the hard drive as much as possible, which most  
 often results in the fastest solution time.  This mode is recommended   
 if enough physical memory is present to accommodate all of the solver   
 data.                                                                   

   *** ELEMENT RESULT CALCULATION TIMES
     TYPE    NUMBER   ENAME      TOTAL CP  AVE CP

        1      5575  PLANE182      0.172   0.000031

   *** NODAL LOAD CALCULATION TIMES
     TYPE    NUMBER   ENAME      TOTAL CP  AVE CP

        1      5575  PLANE182      0.031   0.000006
 *** LOAD STEP     1   SUBSTEP     1  COMPLETED.    CUM ITER =      1
 *** TIME =   1.00000         TIME INC =   1.00000      NEW TRIANG MATRIX


 *** ANSYS BINARY FILE STATISTICS
  BUFFER SIZE USED= 16384
        1.062 MB WRITTEN ON ASSEMBLED MATRIX FILE: GainData_3_12_1.full
        1.812 MB WRITTEN ON RESULTS FILE: GainData_3_12_1.rst

 FINISH SOLUTION PROCESSING


 ***** ROUTINE COMPLETED *****  CP =        19.500



 CLEAR DATABASE AND RERUN START.ANS

 ANSYS Mechanical Enterprise                       

 *****  ANSYS SOLUTION ROUTINE  *****

 FINISH SOLUTION PROCESSING


 ***** ROUTINE COMPLETED *****  CP =        19.516



 *****  ANSYS SOLUTION ROUTINE  *****

 FINISH SOLUTION PROCESSING


 ***** ROUTINE COMPLETED *****  CP =        19.516



 *****  ANSYS SOLUTION ROUTINE  *****

 FINISH SOLUTION PROCESSING


 ***** ROUTINE COMPLETED *****  CP =        19.516



 *****  ANSYS SOLUTION ROUTINE  *****


  Local memory allocated for solver              =      6.037 MB
  Local memory required for in-core solution     =      5.366 MB
  Local memory required for out-of-core solution =      3.041 MB

 *** NOTE ***                            CP =      19.641   TIME= 14:28:23
 The Distributed Sparse Matrix Solver is currently running in the        
 in-core memory mode.  This memory mode uses the most amount of memory   
 in order to avoid using the hard drive as much as possible, which most  
 often results in the fastest solution time.  This mode is recommended   
 if enough physical memory is present to accommodate all of the solver   
 data.                                                                   

   *** ELEMENT RESULT CALCULATION TIMES
     TYPE    NUMBER   ENAME      TOTAL CP  AVE CP

        1      5120  PLANE182      0.094   0.000018

   *** NODAL LOAD CALCULATION TIMES
     TYPE    NUMBER   ENAME      TOTAL CP  AVE CP

        1      5120  PLANE182      0.047   0.000009
 *** LOAD STEP     1   SUBSTEP     1  COMPLETED.    CUM ITER =      1
 *** TIME =   1.00000         TIME INC =   1.00000      NEW TRIANG MATRIX


 *** ANSYS BINARY FILE STATISTICS
  BUFFER SIZE USED= 16384
        0.938 MB WRITTEN ON ASSEMBLED MATRIX FILE: GainData_3_12_1.full
        1.688 MB WRITTEN ON RESULTS FILE: GainData_3_12_1.rst

 FINISH SOLUTION PROCESSING


 ***** ROUTINE COMPLETED *****  CP =        19.953



 CLEAR DATABASE AND RERUN START.ANS

 ANSYS Mechanical Enterprise                       

 *****  ANSYS SOLUTION ROUTINE  *****

 FINISH SOLUTION PROCESSING


 ***** ROUTINE COMPLETED *****  CP =        19.984



 *****  ANSYS SOLUTION ROUTINE  *****

 FINISH SOLUTION PROCESSING


 ***** ROUTINE COMPLETED *****  CP =        19.984



 *****  ANSYS SOLUTION ROUTINE  *****


  Local memory allocated for solver              =      6.113 MB
  Local memory required for in-core solution     =      5.427 MB
  Local memory required for out-of-core solution =      3.034 MB

 *** NOTE ***                            CP =      20.094   TIME= 14:28:27
 The Distributed Sparse Matrix Solver is currently running in the        
 in-core memory mode.  This memory mode uses the most amount of memory   
 in order to avoid using the hard drive as much as possible, which most  
 often results in the fastest solution time.  This mode is recommended   
 if enough physical memory is present to accommodate all of the solver   
 data.                                                                   

   *** ELEMENT RESULT CALCULATION TIMES
     TYPE    NUMBER   ENAME      TOTAL CP  AVE CP

        1      5038  PLANE182      0.188   0.000037

   *** NODAL LOAD CALCULATION TIMES
     TYPE    NUMBER   ENAME      TOTAL CP  AVE CP

        1      5038  PLANE182      0.000   0.000000
 *** LOAD STEP     1   SUBSTEP     1  COMPLETED.    CUM ITER =      1
 *** TIME =   1.00000         TIME INC =   1.00000      NEW TRIANG MATRIX


 *** ANSYS BINARY FILE STATISTICS
  BUFFER SIZE USED= 16384
        0.938 MB WRITTEN ON ASSEMBLED MATRIX FILE: GainData_3_12_1.full
        1.688 MB WRITTEN ON RESULTS FILE: GainData_3_12_1.rst

 FINISH SOLUTION PROCESSING


 ***** ROUTINE COMPLETED *****  CP =        20.406



 CLEAR DATABASE AND RERUN START.ANS

 ANSYS Mechanical Enterprise                       

 *****  ANSYS SOLUTION ROUTINE  *****

 FINISH SOLUTION PROCESSING


 ***** ROUTINE COMPLETED *****  CP =        20.438



 *****  ANSYS SOLUTION ROUTINE  *****

 FINISH SOLUTION PROCESSING


 ***** ROUTINE COMPLETED *****  CP =        20.438



 *****  ANSYS SOLUTION ROUTINE  *****

 FINISH SOLUTION PROCESSING


 ***** ROUTINE COMPLETED *****  CP =        20.438



 *****  ANSYS SOLUTION ROUTINE  *****


  Local memory allocated for solver              =      6.348 MB
  Local memory required for in-core solution     =      5.635 MB
  Local memory required for out-of-core solution =      3.113 MB

 *** NOTE ***                            CP =      20.578   TIME= 14:28:31
 The Distributed Sparse Matrix Solver is currently running in the        
 in-core memory mode.  This memory mode uses the most amount of memory   
 in order to avoid using the hard drive as much as possible, which most  
 often results in the fastest solution time.  This mode is recommended   
 if enough physical memory is present to accommodate all of the solver   
 data.                                                                   

   *** ELEMENT RESULT CALCULATION TIMES
     TYPE    NUMBER   ENAME      TOTAL CP  AVE CP

        1      5177  PLANE182      0.125   0.000024

   *** NODAL LOAD CALCULATION TIMES
     TYPE    NUMBER   ENAME      TOTAL CP  AVE CP

        1      5177  PLANE182      0.078   0.000015
 *** LOAD STEP     1   SUBSTEP     1  COMPLETED.    CUM ITER =      1
 *** TIME =   1.00000         TIME INC =   1.00000      NEW TRIANG MATRIX


 *** ANSYS BINARY FILE STATISTICS
  BUFFER SIZE USED= 16384
        0.938 MB WRITTEN ON ASSEMBLED MATRIX FILE: GainData_3_12_1.full
        1.688 MB WRITTEN ON RESULTS FILE: GainData_3_12_1.rst

 FINISH SOLUTION PROCESSING


 ***** ROUTINE COMPLETED *****  CP =        20.953



 CLEAR DATABASE AND RERUN START.ANS

 ANSYS Mechanical Enterprise                       

 *****  ANSYS SOLUTION ROUTINE  *****

 FINISH SOLUTION PROCESSING


 ***** ROUTINE COMPLETED *****  CP =        20.969



 *****  ANSYS SOLUTION ROUTINE  *****

 FINISH SOLUTION PROCESSING


 ***** ROUTINE COMPLETED *****  CP =        20.969



 *****  ANSYS SOLUTION ROUTINE  *****

 FINISH SOLUTION PROCESSING


 ***** ROUTINE COMPLETED *****  CP =        20.969



 *****  ANSYS SOLUTION ROUTINE  *****


  Local memory allocated for solver              =      6.381 MB
  Local memory required for in-core solution     =      5.663 MB
  Local memory required for out-of-core solution =      3.092 MB

 *** NOTE ***                            CP =      21.109   TIME= 14:28:35
 The Distributed Sparse Matrix Solver is currently running in the        
 in-core memory mode.  This memory mode uses the most amount of memory   
 in order to avoid using the hard drive as much as possible, which most  
 often results in the fastest solution time.  This mode is recommended   
 if enough physical memory is present to accommodate all of the solver   
 data.                                                                   

   *** ELEMENT RESULT CALCULATION TIMES
     TYPE    NUMBER   ENAME      TOTAL CP  AVE CP

        1      5192  PLANE182      0.125   0.000024

   *** NODAL LOAD CALCULATION TIMES
     TYPE    NUMBER   ENAME      TOTAL CP  AVE CP

        1      5192  PLANE182      0.062   0.000012
 *** LOAD STEP     1   SUBSTEP     1  COMPLETED.    CUM ITER =      1
 *** TIME =   1.00000         TIME INC =   1.00000      NEW TRIANG MATRIX


 *** ANSYS BINARY FILE STATISTICS
  BUFFER SIZE USED= 16384
        0.938 MB WRITTEN ON ASSEMBLED MATRIX FILE: GainData_3_12_1.full
        1.750 MB WRITTEN ON RESULTS FILE: GainData_3_12_1.rst

 FINISH SOLUTION PROCESSING


 ***** ROUTINE COMPLETED *****  CP =        21.469



 CLEAR DATABASE AND RERUN START.ANS

 ANSYS Mechanical Enterprise                       

 *****  ANSYS SOLUTION ROUTINE  *****

 FINISH SOLUTION PROCESSING


 ***** ROUTINE COMPLETED *****  CP =        21.500



 *****  ANSYS SOLUTION ROUTINE  *****

 FINISH SOLUTION PROCESSING


 ***** ROUTINE COMPLETED *****  CP =        21.500



 *****  ANSYS SOLUTION ROUTINE  *****

 FINISH SOLUTION PROCESSING


 ***** ROUTINE COMPLETED *****  CP =        21.500



 *****  ANSYS SOLUTION ROUTINE  *****


  Local memory allocated for solver              =      6.024 MB
  Local memory required for in-core solution     =      5.353 MB
  Local memory required for out-of-core solution =      3.020 MB

 *** NOTE ***                            CP =      21.609   TIME= 14:28:38
 The Distributed Sparse Matrix Solver is currently running in the        
 in-core memory mode.  This memory mode uses the most amount of memory   
 in order to avoid using the hard drive as much as possible, which most  
 often results in the fastest solution time.  This mode is recommended   
 if enough physical memory is present to accommodate all of the solver   
 data.                                                                   

[...]



 CLEAR DATABASE AND RERUN START.ANS

 ANSYS Mechanical Enterprise                       

 *****  ANSYS SOLUTION ROUTINE  *****

 FINISH SOLUTION PROCESSING


 ***** ROUTINE COMPLETED *****  CP =       133.328



 *****  ANSYS SOLUTION ROUTINE  *****

 FINISH SOLUTION PROCESSING


 ***** ROUTINE COMPLETED *****  CP =       133.328



 *****  ANSYS SOLUTION ROUTINE  *****

 FINISH SOLUTION PROCESSING


 ***** ROUTINE COMPLETED *****  CP =       133.328



 *****  ANSYS SOLUTION ROUTINE  *****


  Local memory allocated for solver              =      6.609 MB
  Local memory required for in-core solution     =      5.866 MB
  Local memory required for out-of-core solution =      3.223 MB

 *** NOTE ***                            CP =     133.500   TIME= 14:41:38
 The Distributed Sparse Matrix Solver is currently running in the        
 in-core memory mode.  This memory mode uses the most amount of memory   
 in order to avoid using the hard drive as much as possible, which most  
 often results in the fastest solution time.  This mode is recommended   
 if enough physical memory is present to accommodate all of the solver   
 data.                                                                   

   *** ELEMENT RESULT CALCULATION TIMES
     TYPE    NUMBER   ENAME      TOTAL CP  AVE CP

        1      5296  PLANE182      0.141   0.000027

   *** NODAL LOAD CALCULATION TIMES
     TYPE    NUMBER   ENAME      TOTAL CP  AVE CP

        1      5296  PLANE182      0.031   0.000006
 *** LOAD STEP     1   SUBSTEP     1  COMPLETED.    CUM ITER =      1
 *** TIME =   1.00000         TIME INC =   1.00000      NEW TRIANG MATRIX


 *** ANSYS BINARY FILE STATISTICS
  BUFFER SIZE USED= 16384
        1.000 MB WRITTEN ON ASSEMBLED MATRIX FILE: GainData_3_12_1.full
        1.750 MB WRITTEN ON RESULTS FILE: GainData_3_12_1.rst

 FINISH SOLUTION PROCESSING


 ***** ROUTINE COMPLETED *****  CP =       133.859



 CLEAR DATABASE AND RERUN START.ANS

 ANSYS Mechanical Enterprise                       

 *****  ANSYS SOLUTION ROUTINE  *****

 FINISH SOLUTION PROCESSING


 ***** ROUTINE COMPLETED *****  CP =       133.891



 *****  ANSYS SOLUTION ROUTINE  *****

 FINISH SOLUTION PROCESSING


 ***** ROUTINE COMPLETED *****  CP =       133.891



 *****  ANSYS SOLUTION ROUTINE  *****

 FINISH SOLUTION PROCESSING


 ***** ROUTINE COMPLETED *****  CP =       133.891



 *****  ANSYS SOLUTION ROUTINE  *****

 FINISH SOLUTION PROCESSING


 ***** ROUTINE COMPLETED *****  CP =       133.891



 *****  ANSYS SOLUTION ROUTINE  *****


  Local memory allocated for solver              =      6.843 MB
  Local memory required for in-core solution     =      6.075 MB
  Local memory required for out-of-core solution =      3.332 MB

 *** NOTE ***                            CP =     134.062   TIME= 14:41:42
 The Distributed Sparse Matrix Solver is currently running in the        
 in-core memory mode.  This memory mode uses the most amount of memory   
 in order to avoid using the hard drive as much as possible, which most  
 often results in the fastest solution time.  This mode is recommended   
 if enough physical memory is present to accommodate all of the solver   
 data.                                                                   

   *** ELEMENT RESULT CALCULATION TIMES
     TYPE    NUMBER   ENAME      TOTAL CP  AVE CP

        1      5567  PLANE182      0.156   0.000028

   *** NODAL LOAD CALCULATION TIMES
     TYPE    NUMBER   ENAME      TOTAL CP  AVE CP

        1      5567  PLANE182      0.062   0.000011
 *** LOAD STEP     1   SUBSTEP     1  COMPLETED.    CUM ITER =      1
 *** TIME =   1.00000         TIME INC =   1.00000      NEW TRIANG MATRIX


 *** ANSYS BINARY FILE STATISTICS
  BUFFER SIZE USED= 16384
        1.062 MB WRITTEN ON ASSEMBLED MATRIX FILE: GainData_3_12_1.full
        1.812 MB WRITTEN ON RESULTS FILE: GainData_3_12_1.rst

 FINISH SOLUTION PROCESSING


 ***** ROUTINE COMPLETED *****  CP =       134.359



 CLEAR DATABASE AND RERUN START.ANS

 ANSYS Mechanical Enterprise                       

 *****  ANSYS SOLUTION ROUTINE  *****

 FINISH SOLUTION PROCESSING


 ***** ROUTINE COMPLETED *****  CP =       134.375



 *****  ANSYS SOLUTION ROUTINE  *****

 FINISH SOLUTION PROCESSING


 ***** ROUTINE COMPLETED *****  CP =       134.375



 *****  ANSYS SOLUTION ROUTINE  *****

 FINISH SOLUTION PROCESSING


 ***** ROUTINE COMPLETED *****  CP =       134.375



 *****  ANSYS SOLUTION ROUTINE  *****

 FINISH SOLUTION PROCESSING


 ***** ROUTINE COMPLETED *****  CP =       134.375



 *****  ANSYS SOLUTION ROUTINE  *****


  Local memory allocated for solver              =      6.515 MB
  Local memory required for in-core solution     =      5.785 MB
  Local memory required for out-of-core solution =      3.192 MB

 *** NOTE ***                            CP =     134.547   TIME= 14:41:45
 The Distributed Sparse Matrix Solver is currently running in the        
 in-core memory mode.  This memory mode uses the most amount of memory   
 in order to avoid using the hard drive as much as possible, which most  
 often results in the fastest solution time.  This mode is recommended   
 if enough physical memory is present to accommodate all of the solver   
 data.                                                                   

   *** ELEMENT RESULT CALCULATION TIMES
     TYPE    NUMBER   ENAME      TOTAL CP  AVE CP

        1      5329  PLANE182      0.141   0.000026

   *** NODAL LOAD CALCULATION TIMES
     TYPE    NUMBER   ENAME      TOTAL CP  AVE CP

        1      5329  PLANE182      0.031   0.000006
 *** LOAD STEP     1   SUBSTEP     1  COMPLETED.    CUM ITER =      1
 *** TIME =   1.00000         TIME INC =   1.00000      NEW TRIANG MATRIX


 *** ANSYS BINARY FILE STATISTICS
  BUFFER SIZE USED= 16384
        1.000 MB WRITTEN ON ASSEMBLED MATRIX FILE: GainData_3_12_1.full
        1.750 MB WRITTEN ON RESULTS FILE: GainData_3_12_1.rst

 FINISH SOLUTION PROCESSING


 ***** ROUTINE COMPLETED *****  CP =       134.875



 CLEAR DATABASE AND RERUN START.ANS

 ANSYS Mechanical Enterprise                       

 *****  ANSYS SOLUTION ROUTINE  *****

 FINISH SOLUTION PROCESSING


 ***** ROUTINE COMPLETED *****  CP =       134.891



 *****  ANSYS SOLUTION ROUTINE  *****

 FINISH SOLUTION PROCESSING


 ***** ROUTINE COMPLETED *****  CP =       134.891



 *****  ANSYS SOLUTION ROUTINE  *****

 FINISH SOLUTION PROCESSING


 ***** ROUTINE COMPLETED *****  CP =       134.891



 *****  ANSYS SOLUTION ROUTINE  *****

 FINISH SOLUTION PROCESSING


 ***** ROUTINE COMPLETED *****  CP =       134.891



 *****  ANSYS SOLUTION ROUTINE  *****


  Local memory allocated for solver              =      6.757 MB
  Local memory required for in-core solution     =      5.997 MB
  Local memory required for out-of-core solution =      3.249 MB

 *** NOTE ***                            CP =     135.047   TIME= 14:41:48
 The Distributed Sparse Matrix Solver is currently running in the        
 in-core memory mode.  This memory mode uses the most amount of memory   
 in order to avoid using the hard drive as much as possible, which most  
 often results in the fastest solution time.  This mode is recommended   
 if enough physical memory is present to accommodate all of the solver   
 data.                                                                   

   *** ELEMENT RESULT CALCULATION TIMES
     TYPE    NUMBER   ENAME      TOTAL CP  AVE CP

        1      5448  PLANE182      0.141   0.000026

   *** NODAL LOAD CALCULATION TIMES
     TYPE    NUMBER   ENAME      TOTAL CP  AVE CP

        1      5448  PLANE182      0.078   0.000014
 *** LOAD STEP     1   SUBSTEP     1  COMPLETED.    CUM ITER =      1
 *** TIME =   1.00000         TIME INC =   1.00000      NEW TRIANG MATRIX


 *** ANSYS BINARY FILE STATISTICS
  BUFFER SIZE USED= 16384
        1.000 MB WRITTEN ON ASSEMBLED MATRIX FILE: GainData_3_12_1.full
        1.812 MB WRITTEN ON RESULTS FILE: GainData_3_12_1.rst

 FINISH SOLUTION PROCESSING


 ***** ROUTINE COMPLETED *****  CP =       135.359



 CLEAR DATABASE AND RERUN START.ANS

 ANSYS Mechanical Enterprise                       

 *****  ANSYS SOLUTION ROUTINE  *****

 FINISH SOLUTION PROCESSING


 ***** ROUTINE COMPLETED *****  CP =       135.359



 *****  ANSYS SOLUTION ROUTINE  *****

 FINISH SOLUTION PROCESSING


 ***** ROUTINE COMPLETED *****  CP =       135.359



 *****  ANSYS SOLUTION ROUTINE  *****

 FINISH SOLUTION PROCESSING


 ***** ROUTINE COMPLETED *****  CP =       135.359



 *****  ANSYS SOLUTION ROUTINE  *****


  Local memory allocated for solver              =      6.064 MB
  Local memory required for in-core solution     =      5.389 MB
  Local memory required for out-of-core solution =      3.086 MB

 *** NOTE ***                            CP =     135.500   TIME= 14:41:54
 The Distributed Sparse Matrix Solver is currently running in the        
 in-core memory mode.  This memory mode uses the most amount of memory   
 in order to avoid using the hard drive as much as possible, which most  
 often results in the fastest solution time.  This mode is recommended   
 if enough physical memory is present to accommodate all of the solver   
 data.                                                                   

   *** ELEMENT RESULT CALCULATION TIMES
     TYPE    NUMBER   ENAME      TOTAL CP  AVE CP

        1      5166  PLANE182      0.094   0.000018

   *** NODAL LOAD CALCULATION TIMES
     TYPE    NUMBER   ENAME      TOTAL CP  AVE CP

        1      5166  PLANE182      0.109   0.000021
 *** LOAD STEP     1   SUBSTEP     1  COMPLETED.    CUM ITER =      1
 *** TIME =   1.00000         TIME INC =   1.00000      NEW TRIANG MATRIX


 *** ANSYS BINARY FILE STATISTICS
  BUFFER SIZE USED= 16384
        0.938 MB WRITTEN ON ASSEMBLED MATRIX FILE: GainData_3_12_1.full
        1.688 MB WRITTEN ON RESULTS FILE: GainData_3_12_1.rst

 FINISH SOLUTION PROCESSING


 ***** ROUTINE COMPLETED *****  CP =       135.812



 CLEAR DATABASE AND RERUN START.ANS

 ANSYS Mechanical Enterprise                       

 *****  ANSYS SOLUTION ROUTINE  *****

 FINISH SOLUTION PROCESSING


 ***** ROUTINE COMPLETED *****  CP =       135.844



 *****  ANSYS SOLUTION ROUTINE  *****

 FINISH SOLUTION PROCESSING


 ***** ROUTINE COMPLETED *****  CP =       135.844



 *****  ANSYS SOLUTION ROUTINE  *****

 FINISH SOLUTION PROCESSING


 ***** ROUTINE COMPLETED *****  CP =       135.844



 *****  ANSYS SOLUTION ROUTINE  *****

 FINISH SOLUTION PROCESSING


 ***** ROUTINE COMPLETED *****  CP =       135.844



 *****  ANSYS SOLUTION ROUTINE  *****


  Local memory allocated for solver              =      6.661 MB
  Local memory required for in-core solution     =      5.912 MB
  Local memory required for out-of-core solution =      3.219 MB

 *** NOTE ***                            CP =     136.016   TIME= 14:41:57
 The Distributed Sparse Matrix Solver is currently running in the        
 in-core memory mode.  This memory mode uses the most amount of memory   
 in order to avoid using the hard drive as much as possible, which most  
 often results in the fastest solution time.  This mode is recommended   
 if enough physical memory is present to accommodate all of the solver   
 data.                                                                   

   *** ELEMENT RESULT CALCULATION TIMES
     TYPE    NUMBER   ENAME      TOTAL CP  AVE CP

        1      5350  PLANE182      0.156   0.000029

   *** NODAL LOAD CALCULATION TIMES
     TYPE    NUMBER   ENAME      TOTAL CP  AVE CP

        1      5350  PLANE182      0.062   0.000012
 *** LOAD STEP     1   SUBSTEP     1  COMPLETED.    CUM ITER =      1
 *** TIME =   1.00000         TIME INC =   1.00000      NEW TRIANG MATRIX


 *** ANSYS BINARY FILE STATISTICS
  BUFFER SIZE USED= 16384
        1.000 MB WRITTEN ON ASSEMBLED MATRIX FILE: GainData_3_12_1.full
        1.750 MB WRITTEN ON RESULTS FILE: GainData_3_12_1.rst

 FINISH SOLUTION PROCESSING


 ***** ROUTINE COMPLETED *****  CP =       136.312



 CLEAR DATABASE AND RERUN START.ANS

 ANSYS Mechanical Enterprise                       

 *****  ANSYS SOLUTION ROUTINE  *****

 FINISH SOLUTION PROCESSING


 ***** ROUTINE COMPLETED *****  CP =       136.328



 *****  ANSYS SOLUTION ROUTINE  *****

 FINISH SOLUTION PROCESSING


 ***** ROUTINE COMPLETED *****  CP =       136.328



 *****  ANSYS SOLUTION ROUTINE  *****

 FINISH SOLUTION PROCESSING


 ***** ROUTINE COMPLETED *****  CP =       136.328



 *****  ANSYS SOLUTION ROUTINE  *****

 FINISH SOLUTION PROCESSING


 ***** ROUTINE COMPLETED *****  CP =       136.328



 *****  ANSYS SOLUTION ROUTINE  *****


  Local memory allocated for solver              =      6.913 MB
  Local memory required for in-core solution     =      6.135 MB
  Local memory required for out-of-core solution =      3.339 MB

 *** NOTE ***                            CP =     136.484   TIME= 14:42:01
 The Distributed Sparse Matrix Solver is currently running in the        
 in-core memory mode.  This memory mode uses the most amount of memory   
 in order to avoid using the hard drive as much as possible, which most  
 often results in the fastest solution time.  This mode is recommended   
 if enough physical memory is present to accommodate all of the solver   
 data.                                                                   

   *** ELEMENT RESULT CALCULATION TIMES
     TYPE    NUMBER   ENAME      TOTAL CP  AVE CP

        1      5526  PLANE182      0.156   0.000028

   *** NODAL LOAD CALCULATION TIMES
     TYPE    NUMBER   ENAME      TOTAL CP  AVE CP

        1      5526  PLANE182      0.062   0.000011
 *** LOAD STEP     1   SUBSTEP     1  COMPLETED.    CUM ITER =      1
 *** TIME =   1.00000         TIME INC =   1.00000      NEW TRIANG MATRIX


 *** ANSYS BINARY FILE STATISTICS
  BUFFER SIZE USED= 16384
        1.000 MB WRITTEN ON ASSEMBLED MATRIX FILE: GainData_3_12_1.full
        1.812 MB WRITTEN ON RESULTS FILE: GainData_3_12_1.rst

 FINISH SOLUTION PROCESSING


 ***** ROUTINE COMPLETED *****  CP =       136.734



 CLEAR DATABASE AND RERUN START.ANS

 ANSYS Mechanical Enterprise                       

 *****  ANSYS SOLUTION ROUTINE  *****

 FINISH SOLUTION PROCESSING


 ***** ROUTINE COMPLETED *****  CP =       136.734



 *****  ANSYS SOLUTION ROUTINE  *****

 FINISH SOLUTION PROCESSING


 ***** ROUTINE COMPLETED *****  CP =       136.734



 *****  ANSYS SOLUTION ROUTINE  *****

 FINISH SOLUTION PROCESSING


 ***** ROUTINE COMPLETED *****  CP =       136.734



 *****  ANSYS SOLUTION ROUTINE  *****


  Local memory allocated for solver              =      6.329 MB
  Local memory required for in-core solution     =      5.619 MB
  Local memory required for out-of-core solution =      3.116 MB

 *** NOTE ***                            CP =     136.859   TIME= 14:42:04
 The Distributed Sparse Matrix Solver is currently running in the        
 in-core memory mode.  This memory mode uses the most amount of memory   
 in order to avoid using the hard drive as much as possible, which most  
 often results in the fastest solution time.  This mode is recommended   
 if enough physical memory is present to accommodate all of the solver   
 data.                                                                   

   *** ELEMENT RESULT CALCULATION TIMES
     TYPE    NUMBER   ENAME      TOTAL CP  AVE CP

        1      5144  PLANE182      0.203   0.000039

   *** NODAL LOAD CALCULATION TIMES
     TYPE    NUMBER   ENAME      TOTAL CP  AVE CP

        1      5144  PLANE182      0.031   0.000006
 *** LOAD STEP     1   SUBSTEP     1  COMPLETED.    CUM ITER =      1
 *** TIME =   1.00000         TIME INC =   1.00000      NEW TRIANG MATRIX


 *** ANSYS BINARY FILE STATISTICS
  BUFFER SIZE USED= 16384
        0.938 MB WRITTEN ON ASSEMBLED MATRIX FILE: GainData_3_12_1.full
        1.688 MB WRITTEN ON RESULTS FILE: GainData_3_12_1.rst

 FINISH SOLUTION PROCESSING


 ***** ROUTINE COMPLETED *****  CP =       137.172



 CLEAR DATABASE AND RERUN START.ANS

 ANSYS Mechanical Enterprise                       

 *****  ANSYS SOLUTION ROUTINE  *****

 FINISH SOLUTION PROCESSING


 ***** ROUTINE COMPLETED *****  CP =       137.172



 *****  ANSYS SOLUTION ROUTINE  *****

 FINISH SOLUTION PROCESSING


 ***** ROUTINE COMPLETED *****  CP =       137.172



 *****  ANSYS SOLUTION ROUTINE  *****

 FINISH SOLUTION PROCESSING


 ***** ROUTINE COMPLETED *****  CP =       137.172



 *****  ANSYS SOLUTION ROUTINE  *****

 FINISH SOLUTION PROCESSING


 ***** ROUTINE COMPLETED *****  CP =       137.172



 *****  ANSYS SOLUTION ROUTINE  *****


  Local memory allocated for solver              =      6.804 MB
  Local memory required for in-core solution     =      6.039 MB
  Local memory required for out-of-core solution =      3.318 MB

 *** NOTE ***                            CP =     137.297   TIME= 14:42:07
 The Distributed Sparse Matrix Solver is currently running in the        
 in-core memory mode.  This memory mode uses the most amount of memory   
 in order to avoid using the hard drive as much as possible, which most  
 often results in the fastest solution time.  This mode is recommended   
 if enough physical memory is present to accommodate all of the solver   
 data.                                                                   

   *** ELEMENT RESULT CALCULATION TIMES
     TYPE    NUMBER   ENAME      TOTAL CP  AVE CP

        1      5470  PLANE182      0.203   0.000037

   *** NODAL LOAD CALCULATION TIMES
     TYPE    NUMBER   ENAME      TOTAL CP  AVE CP

        1      5470  PLANE182      0.047   0.000009
 *** LOAD STEP     1   SUBSTEP     1  COMPLETED.    CUM ITER =      1
 *** TIME =   1.00000         TIME INC =   1.00000      NEW TRIANG MATRIX


 *** ANSYS BINARY FILE STATISTICS
  BUFFER SIZE USED= 16384
        1.000 MB WRITTEN ON ASSEMBLED MATRIX FILE: GainData_3_12_1.full
        1.812 MB WRITTEN ON RESULTS FILE: GainData_3_12_1.rst

 FINISH SOLUTION PROCESSING


 ***** ROUTINE COMPLETED *****  CP =       137.656



 CLEAR DATABASE AND RERUN START.ANS

 ANSYS Mechanical Enterprise                       

 *****  ANSYS SOLUTION ROUTINE  *****

 FINISH SOLUTION PROCESSING


 ***** ROUTINE COMPLETED *****  CP =       137.672



 *****  ANSYS SOLUTION ROUTINE  *****

 FINISH SOLUTION PROCESSING


 ***** ROUTINE COMPLETED *****  CP =       137.672



 *****  ANSYS SOLUTION ROUTINE  *****

 FINISH SOLUTION PROCESSING


 ***** ROUTINE COMPLETED *****  CP =       137.672



 *****  ANSYS SOLUTION ROUTINE  *****


  Local memory allocated for solver              =      6.846 MB
  Local memory required for in-core solution     =      6.074 MB
  Local memory required for out-of-core solution =      3.288 MB

 *** NOTE ***                            CP =     137.828   TIME= 14:42:10
 The Distributed Sparse Matrix Solver is currently running in the        
 in-core memory mode.  This memory mode uses the most amount of memory   
 in order to avoid using the hard drive as much as possible, which most  
 often results in the fastest solution time.  This mode is recommended   
 if enough physical memory is present to accommodate all of the solver   
 data.                                                                   

   *** ELEMENT RESULT CALCULATION TIMES
     TYPE    NUMBER   ENAME      TOTAL CP  AVE CP

        1      5453  PLANE182      0.172   0.000032

   *** NODAL LOAD CALCULATION TIMES
     TYPE    NUMBER   ENAME      TOTAL CP  AVE CP

        1      5453  PLANE182      0.031   0.000006
 *** LOAD STEP     1   SUBSTEP     1  COMPLETED.    CUM ITER =      1
 *** TIME =   1.00000         TIME INC =   1.00000      NEW TRIANG MATRIX


 *** ANSYS BINARY FILE STATISTICS
  BUFFER SIZE USED= 16384
        1.000 MB WRITTEN ON ASSEMBLED MATRIX FILE: GainData_3_12_1.full
        1.812 MB WRITTEN ON RESULTS FILE: GainData_3_12_1.rst

 FINISH SOLUTION PROCESSING


 ***** ROUTINE COMPLETED *****  CP =       138.172


