
 ANSYS Mechanical Enterprise                       


 *------------------------------------------------------------------*
 |                                                                  |
 |   W E L C O M E   T O   T H E   A N S Y S (R)  P R O G R A M     |
 |                                                                  |
 *------------------------------------------------------------------*




 ***************************************************************
 *            ANSYS 2020 R1          LEGAL NOTICES             *
 ***************************************************************
 *                                                             *
 * Copyright 1971-2020 ANSYS, Inc.  All rights reserved.       *
 * Unauthorized use, distribution or duplication is            *
 * prohibited.                                                 *
 *                                                             *
 * Ansys is a registered trademark of ANSYS, Inc. or its       *
 * subsidiaries in the United States or other countries.       *
 * See the ANSYS, Inc. online documentation or the ANSYS, Inc. *
 * documentation CD or online help for the complete Legal      *
 * Notice.                                                     *
 *                                                             *
 ***************************************************************
 *                                                             *
 * THIS ANSYS SOFTWARE PRODUCT AND PROGRAM DOCUMENTATION       *
 * INCLUDE TRADE SECRETS AND CONFIDENTIAL AND PROPRIETARY      *
 * PRODUCTS OF ANSYS, INC., ITS SUBSIDIARIES, OR LICENSORS.    *
 * The software products and documentation are furnished by    *
 * ANSYS, Inc. or its subsidiaries under a software license    *
 * agreement that contains provisions concerning               *
 * non-disclosure, copying, length and nature of use,          *
 * compliance with exporting laws, warranties, disclaimers,    *
 * limitations of liability, and remedies, and other           *
 * provisions.  The software products and documentation may be *
 * used, disclosed, transferred, or copied only in accordance  *
 * with the terms and conditions of that software license      *
 * agreement.                                                  *
 *                                                             *
 * ANSYS, Inc. is a UL registered                              *
 * ISO 9001:2015 company.                                      *
 *                                                             *
 ***************************************************************
 *                                                             *
 * This product is subject to U.S. laws governing export and   *
 * re-export.                                                  *
 *                                                             *
 * For U.S. Government users, except as specifically granted   *
 * by the ANSYS, Inc. software license agreement, the use,     *
 * duplication, or disclosure by the United States Government  *
 * is subject to restrictions stated in the ANSYS, Inc.        *
 * software license agreement and FAR 12.212 (for non-DOD      *
 * licenses).                                                  *
 *                                                             *
 ***************************************************************

 2020 R1 
     
 Point Releases and Patches installed:   
     
 ANSYS, Inc. Products 2020 R1
 SpaceClaim 2020 R1  
 Customization Files for User Programmable Features 2020 R1  
 Mechanical Products 2020 R1 
 Additive 2020 R1
 Remote Solve Manager Standalone Services 2020 R1
 Viewer 2020 R1  
 ACIS Geometry Interface 2020 R1 
 AutoCAD Geometry Interface 2020 R1  
 Catia, Version 4 Geometry Interface 2020 R1 
 Catia, Version 5 Geometry Interface 2020 R1 
 Catia, Version 6 Geometry Interface 2020 R1 
 Creo Elements/Direct Modeling Geometry Interface 2020 R1
 Creo Parametric Geometry Interface 2020 R1  
 Inventor Geometry Interface 2020 R1 
 JTOpen Geometry Interface 2020 R1   
 NX Geometry Interface 2020 R1   
 Parasolid Geometry Interface  2020 R1   
 Solid Edge Geometry Interface 2020 R1   
 SOLIDWORKS Geometry Interface 2020 R1   
 ANSYS, Inc. License Manager 2020 R1 


          *****  ANSYS COMMAND LINE ARGUMENTS  *****
  INITIAL JOBNAME              = Main                                                                                                                                                                                                                                                    
  DISTRIBUTED MEMORY PARALLEL REQUESTED
       2 PARALLEL PROCESSES REQUESTED WITH SINGLE THREAD PER PROCESS
    TOTAL OF     2 CORES REQUESTED
  MPI OPTION                   = INTELMPI
  START-UP FILE MODE           = READ  
  STOP FILE MODE               = READ  
  GRAPHICS DEVICE REQUESTED    = win32   
  GRAPHICAL ENTRY              = YES   
  LANGUAGE                     = en-us               
  INITIAL DIRECTORY = \\stud.uni-stuttgart.de\users\st\st166934\Eigene Dateien\GitHub\NNStatikProjektarbeit\Projektarbeit\Ansys\Environment

 RELEASE= 2020 R1              BUILD= 20.1      UP20191203   VERSION=WINDOWS x64 
 CURRENT JOBNAME=Main1  08:28:38  DEC 14, 2021 CP=      0.031



 NUMBER OF DISPLAYED ERRORS ALLOWED PER COMMAND=                  0
 NUMBER OF ERRORS ALLOWED PER COMMAND BEFORE ANSYS ABORT=     10000
 ALL ERRORS WRITTEN TO \\stud.uni-stuttgart.de\users\st\st166934\Eigene Dateien\GitHub\NNStatikProjektarbeit\Projektarbeit\Ansys\Environment\Main1.err                                                                                                                                     
 DO NOT TERMINATE /INPUT UPON FIRST ERROR

 CLEAR DATABASE AND RERUN START.ANS

 ANSYS Mechanical Enterprise                       

 CLEAR DATABASE AND RERUN START.ANS

 ANSYS Mechanical Enterprise                       

 *****  ANSYS SOLUTION ROUTINE  *****

 FINISH SOLUTION PROCESSING


 ***** ROUTINE COMPLETED *****  CP =         2.047



 *****  ANSYS SOLUTION ROUTINE  *****


  Local memory allocated for solver              =     30.773 MB
  Local memory required for in-core solution     =     27.252 MB
  Local memory required for out-of-core solution =     12.973 MB

 *** NOTE ***                            CP =       2.516   TIME= 08:36:42
 The Distributed Sparse Matrix Solver is currently running in the        
 in-core memory mode.  This memory mode uses the most amount of memory   
 in order to avoid using the hard drive as much as possible, which most  
 often results in the fastest solution time.  This mode is recommended   
 if enough physical memory is present to accommodate all of the solver   
 data.                                                                   

   *** ELEMENT RESULT CALCULATION TIMES
     TYPE    NUMBER   ENAME      TOTAL CP  AVE CP

        1     22343  PLANE182      0.625   0.000028

   *** NODAL LOAD CALCULATION TIMES
     TYPE    NUMBER   ENAME      TOTAL CP  AVE CP

        1     22343  PLANE182      0.188   0.000008
 *** LOAD STEP     1   SUBSTEP     1  COMPLETED.    CUM ITER =      1
 *** TIME =   1.00000         TIME INC =   1.00000      NEW TRIANG MATRIX


 *** ANSYS BINARY FILE STATISTICS
  BUFFER SIZE USED= 16384
        4.000 MB WRITTEN ON ASSEMBLED MATRIX FILE: Main1.full
        6.375 MB WRITTEN ON RESULTS FILE: Main1.rst

 FINISH SOLUTION PROCESSING


 ***** ROUTINE COMPLETED *****  CP =         3.359



 CLEAR DATABASE AND RERUN START.ANS

 ANSYS Mechanical Enterprise                       

 CLEAR DATABASE AND RERUN START.ANS

 ANSYS Mechanical Enterprise                       

 *****  ANSYS SOLUTION ROUTINE  *****

 FINISH SOLUTION PROCESSING


 ***** ROUTINE COMPLETED *****  CP =         5.078



 *****  ANSYS SOLUTION ROUTINE  *****


  Local memory allocated for solver              =     28.995 MB
  Local memory required for in-core solution     =     25.681 MB
  Local memory required for out-of-core solution =     12.304 MB

 *** NOTE ***                            CP =       5.500   TIME= 08:39:45
 The Distributed Sparse Matrix Solver is currently running in the        
 in-core memory mode.  This memory mode uses the most amount of memory   
 in order to avoid using the hard drive as much as possible, which most  
 often results in the fastest solution time.  This mode is recommended   
 if enough physical memory is present to accommodate all of the solver   
 data.                                                                   

   *** ELEMENT RESULT CALCULATION TIMES
     TYPE    NUMBER   ENAME      TOTAL CP  AVE CP

        1     21280  PLANE182      0.484   0.000023

   *** NODAL LOAD CALCULATION TIMES
     TYPE    NUMBER   ENAME      TOTAL CP  AVE CP

        1     21280  PLANE182      0.281   0.000013
 *** LOAD STEP     1   SUBSTEP     1  COMPLETED.    CUM ITER =      1
 *** TIME =   1.00000         TIME INC =   1.00000      NEW TRIANG MATRIX


 *** ANSYS BINARY FILE STATISTICS
  BUFFER SIZE USED= 16384
        3.812 MB WRITTEN ON ASSEMBLED MATRIX FILE: Main1.full
        6.062 MB WRITTEN ON RESULTS FILE: Main1.rst

 FINISH SOLUTION PROCESSING


 ***** ROUTINE COMPLETED *****  CP =         6.375



 CLEAR DATABASE AND RERUN START.ANS

 ANSYS Mechanical Enterprise                       

 CLEAR DATABASE AND RERUN START.ANS

 ANSYS Mechanical Enterprise                       

 *****  ANSYS SOLUTION ROUTINE  *****

 FINISH SOLUTION PROCESSING


 ***** ROUTINE COMPLETED *****  CP =         8.375



 *****  ANSYS SOLUTION ROUTINE  *****


  Local memory allocated for solver              =     28.541 MB
  Local memory required for in-core solution     =     25.284 MB
  Local memory required for out-of-core solution =     12.332 MB

 *** NOTE ***                            CP =       8.859   TIME= 08:43:35
 The Distributed Sparse Matrix Solver is currently running in the        
 in-core memory mode.  This memory mode uses the most amount of memory   
 in order to avoid using the hard drive as much as possible, which most  
 often results in the fastest solution time.  This mode is recommended   
 if enough physical memory is present to accommodate all of the solver   
 data.                                                                   

   *** ELEMENT RESULT CALCULATION TIMES
     TYPE    NUMBER   ENAME      TOTAL CP  AVE CP

        1     21115  PLANE182      0.594   0.000028

   *** NODAL LOAD CALCULATION TIMES
     TYPE    NUMBER   ENAME      TOTAL CP  AVE CP

        1     21115  PLANE182      0.156   0.000007
 *** LOAD STEP     1   SUBSTEP     1  COMPLETED.    CUM ITER =      1
 *** TIME =   1.00000         TIME INC =   1.00000      NEW TRIANG MATRIX


 *** ANSYS BINARY FILE STATISTICS
  BUFFER SIZE USED= 16384
        3.750 MB WRITTEN ON ASSEMBLED MATRIX FILE: Main1.full
        6.062 MB WRITTEN ON RESULTS FILE: Main1.rst

 FINISH SOLUTION PROCESSING


 ***** ROUTINE COMPLETED *****  CP =         9.797



 CLEAR DATABASE AND RERUN START.ANS

 ANSYS Mechanical Enterprise                       

 CLEAR DATABASE AND RERUN START.ANS

 ANSYS Mechanical Enterprise                       

 *****  ANSYS SOLUTION ROUTINE  *****

 FINISH SOLUTION PROCESSING


 ***** ROUTINE COMPLETED *****  CP =        12.953



 *****  ANSYS SOLUTION ROUTINE  *****


  Local memory allocated for solver              =     27.694 MB
  Local memory required for in-core solution     =     24.541 MB
  Local memory required for out-of-core solution =     12.100 MB

 *** NOTE ***                            CP =      13.375   TIME= 08:46:13
 The Distributed Sparse Matrix Solver is currently running in the        
 in-core memory mode.  This memory mode uses the most amount of memory   
 in order to avoid using the hard drive as much as possible, which most  
 often results in the fastest solution time.  This mode is recommended   
 if enough physical memory is present to accommodate all of the solver   
 data.                                                                   

   *** ELEMENT RESULT CALCULATION TIMES
     TYPE    NUMBER   ENAME      TOTAL CP  AVE CP

        1     20711  PLANE182      0.516   0.000025

   *** NODAL LOAD CALCULATION TIMES
     TYPE    NUMBER   ENAME      TOTAL CP  AVE CP

        1     20711  PLANE182      0.234   0.000011
 *** LOAD STEP     1   SUBSTEP     1  COMPLETED.    CUM ITER =      1
 *** TIME =   1.00000         TIME INC =   1.00000      NEW TRIANG MATRIX


 *** ANSYS BINARY FILE STATISTICS
  BUFFER SIZE USED= 16384
        3.688 MB WRITTEN ON ASSEMBLED MATRIX FILE: Main1.full
        5.938 MB WRITTEN ON RESULTS FILE: Main1.rst

 FINISH SOLUTION PROCESSING


 ***** ROUTINE COMPLETED *****  CP =        14.109



 CLEAR DATABASE AND RERUN START.ANS

 ANSYS Mechanical Enterprise                       

 CLEAR DATABASE AND RERUN START.ANS

 ANSYS Mechanical Enterprise                       

 *****  ANSYS SOLUTION ROUTINE  *****

 FINISH SOLUTION PROCESSING


 ***** ROUTINE COMPLETED *****  CP =        14.172



 *****  ANSYS SOLUTION ROUTINE  *****

 FINISH SOLUTION PROCESSING


 ***** ROUTINE COMPLETED *****  CP =        14.172



 *****  ANSYS SOLUTION ROUTINE  *****


  Local memory allocated for solver              =     28.736 MB
  Local memory required for in-core solution     =     25.471 MB
  Local memory required for out-of-core solution =     12.525 MB

 *** NOTE ***                            CP =      14.625   TIME= 08:46:27
 The Distributed Sparse Matrix Solver is currently running in the        
 in-core memory mode.  This memory mode uses the most amount of memory   
 in order to avoid using the hard drive as much as possible, which most  
 often results in the fastest solution time.  This mode is recommended   
 if enough physical memory is present to accommodate all of the solver   
 data.                                                                   

   *** ELEMENT RESULT CALCULATION TIMES
     TYPE    NUMBER   ENAME      TOTAL CP  AVE CP

        1     21847  PLANE182      0.562   0.000026

   *** NODAL LOAD CALCULATION TIMES
     TYPE    NUMBER   ENAME      TOTAL CP  AVE CP

        1     21847  PLANE182      0.141   0.000006
 *** LOAD STEP     1   SUBSTEP     1  COMPLETED.    CUM ITER =      1
 *** TIME =   1.00000         TIME INC =   1.00000      NEW TRIANG MATRIX


 *** ANSYS BINARY FILE STATISTICS
  BUFFER SIZE USED= 16384
        3.875 MB WRITTEN ON ASSEMBLED MATRIX FILE: Main1.full
        6.250 MB WRITTEN ON RESULTS FILE: Main1.rst

 FINISH SOLUTION PROCESSING


 ***** ROUTINE COMPLETED *****  CP =        15.484



 CLEAR DATABASE AND RERUN START.ANS

 ANSYS Mechanical Enterprise                       

 *****  ANSYS SOLUTION ROUTINE  *****

 FINISH SOLUTION PROCESSING


 ***** ROUTINE COMPLETED *****  CP =        15.484



 *****  ANSYS SOLUTION ROUTINE  *****

 FINISH SOLUTION PROCESSING


 ***** ROUTINE COMPLETED *****  CP =        15.484



 *****  ANSYS SOLUTION ROUTINE  *****


  Local memory allocated for solver              =     26.006 MB
  Local memory required for in-core solution     =     23.057 MB
  Local memory required for out-of-core solution =     11.444 MB

 *** NOTE ***                            CP =      15.953   TIME= 08:46:40
 The Distributed Sparse Matrix Solver is currently running in the        
 in-core memory mode.  This memory mode uses the most amount of memory   
 in order to avoid using the hard drive as much as possible, which most  
 often results in the fastest solution time.  This mode is recommended   
 if enough physical memory is present to accommodate all of the solver   
 data.                                                                   

   *** ELEMENT RESULT CALCULATION TIMES
     TYPE    NUMBER   ENAME      TOTAL CP  AVE CP

        1     19921  PLANE182      0.578   0.000029

   *** NODAL LOAD CALCULATION TIMES
     TYPE    NUMBER   ENAME      TOTAL CP  AVE CP

        1     19921  PLANE182      0.188   0.000009
 *** LOAD STEP     1   SUBSTEP     1  COMPLETED.    CUM ITER =      1
 *** TIME =   1.00000         TIME INC =   1.00000      NEW TRIANG MATRIX


 *** ANSYS BINARY FILE STATISTICS
  BUFFER SIZE USED= 16384
        3.562 MB WRITTEN ON ASSEMBLED MATRIX FILE: Main1.full
        5.688 MB WRITTEN ON RESULTS FILE: Main1.rst

 FINISH SOLUTION PROCESSING


 ***** ROUTINE COMPLETED *****  CP =        16.750



 CLEAR DATABASE AND RERUN START.ANS

 ANSYS Mechanical Enterprise                       

 CLEAR DATABASE AND RERUN START.ANS

 ANSYS Mechanical Enterprise                       

 CLEAR DATABASE AND RERUN START.ANS

 ANSYS Mechanical Enterprise                       

 CLEAR DATABASE AND RERUN START.ANS

 ANSYS Mechanical Enterprise                       

 CLEAR DATABASE AND RERUN START.ANS

 ANSYS Mechanical Enterprise                       

 CLEAR DATABASE AND RERUN START.ANS

 ANSYS Mechanical Enterprise                       

 CLEAR DATABASE AND RERUN START.ANS

 ANSYS Mechanical Enterprise                       

 CLEAR DATABASE AND RERUN START.ANS

 ANSYS Mechanical Enterprise                       

 CLEAR DATABASE AND RERUN START.ANS

 ANSYS Mechanical Enterprise                       

 CLEAR DATABASE AND RERUN START.ANS

 ANSYS Mechanical Enterprise                       

 CLEAR DATABASE AND RERUN START.ANS

 ANSYS Mechanical Enterprise                       

 CLEAR DATABASE AND RERUN START.ANS

 ANSYS Mechanical Enterprise                       

 CLEAR DATABASE AND RERUN START.ANS

 ANSYS Mechanical Enterprise                       

 CLEAR DATABASE AND RERUN START.ANS

 ANSYS Mechanical Enterprise                       

 CLEAR DATABASE AND RERUN START.ANS

 ANSYS Mechanical Enterprise                       

 CLEAR DATABASE AND RERUN START.ANS

 ANSYS Mechanical Enterprise                       

 *****  ANSYS SOLUTION ROUTINE  *****

 FINISH SOLUTION PROCESSING


 ***** ROUTINE COMPLETED *****  CP =        19.703



 *****  ANSYS SOLUTION ROUTINE  *****


  Local memory allocated for solver              =     28.132 MB
  Local memory required for in-core solution     =     24.921 MB
  Local memory required for out-of-core solution =     12.075 MB

 *** NOTE ***                            CP =      20.203   TIME= 08:51:01
 The Distributed Sparse Matrix Solver is currently running in the        
 in-core memory mode.  This memory mode uses the most amount of memory   
 in order to avoid using the hard drive as much as possible, which most  
 often results in the fastest solution time.  This mode is recommended   
 if enough physical memory is present to accommodate all of the solver   
 data.                                                                   

   *** ELEMENT RESULT CALCULATION TIMES
     TYPE    NUMBER   ENAME      TOTAL CP  AVE CP

        1     20696  PLANE182      0.500   0.000024

   *** NODAL LOAD CALCULATION TIMES
     TYPE    NUMBER   ENAME      TOTAL CP  AVE CP

        1     20696  PLANE182      0.156   0.000008
 *** LOAD STEP     1   SUBSTEP     1  COMPLETED.    CUM ITER =      1
 *** TIME =   1.00000         TIME INC =   1.00000      NEW TRIANG MATRIX


 *** ANSYS BINARY FILE STATISTICS
  BUFFER SIZE USED= 16384
        3.688 MB WRITTEN ON ASSEMBLED MATRIX FILE: Main1.full
        5.938 MB WRITTEN ON RESULTS FILE: Main1.rst

 FINISH SOLUTION PROCESSING


 ***** ROUTINE COMPLETED *****  CP =        21.078



 CLEAR DATABASE AND RERUN START.ANS

 ANSYS Mechanical Enterprise                       

 CLEAR DATABASE AND RERUN START.ANS

 ANSYS Mechanical Enterprise                       

 CLEAR DATABASE AND RERUN START.ANS

 ANSYS Mechanical Enterprise                       

 CLEAR DATABASE AND RERUN START.ANS

 ANSYS Mechanical Enterprise                       

 CLEAR DATABASE AND RERUN START.ANS

 ANSYS Mechanical Enterprise                       

 CLEAR DATABASE AND RERUN START.ANS

 ANSYS Mechanical Enterprise                       

 CLEAR DATABASE AND RERUN START.ANS

 ANSYS Mechanical Enterprise                       

 CLEAR DATABASE AND RERUN START.ANS

 ANSYS Mechanical Enterprise                       

 CLEAR DATABASE AND RERUN START.ANS

 ANSYS Mechanical Enterprise                       

 CLEAR DATABASE AND RERUN START.ANS

 ANSYS Mechanical Enterprise                       

 CLEAR DATABASE AND RERUN START.ANS

 ANSYS Mechanical Enterprise                       

 CLEAR DATABASE AND RERUN START.ANS

 ANSYS Mechanical Enterprise                       

 CLEAR DATABASE AND RERUN START.ANS

 ANSYS Mechanical Enterprise                       

 CLEAR DATABASE AND RERUN START.ANS

 ANSYS Mechanical Enterprise                       

 CLEAR DATABASE AND RERUN START.ANS

 ANSYS Mechanical Enterprise                       

 CLEAR DATABASE AND RERUN START.ANS

 ANSYS Mechanical Enterprise                       

 CLEAR DATABASE AND RERUN START.ANS

 ANSYS Mechanical Enterprise                       

 CLEAR DATABASE AND RERUN START.ANS

 ANSYS Mechanical Enterprise                       

 *****  ANSYS SOLUTION ROUTINE  *****

 FINISH SOLUTION PROCESSING


 ***** ROUTINE COMPLETED *****  CP =        21.641



 *****  ANSYS SOLUTION ROUTINE  *****


  Local memory allocated for solver              =     27.496 MB
  Local memory required for in-core solution     =     24.369 MB
  Local memory required for out-of-core solution =     11.943 MB

 *** NOTE ***                            CP =      22.125   TIME= 08:51:16
 The Distributed Sparse Matrix Solver is currently running in the        
 in-core memory mode.  This memory mode uses the most amount of memory   
 in order to avoid using the hard drive as much as possible, which most  
 often results in the fastest solution time.  This mode is recommended   
 if enough physical memory is present to accommodate all of the solver   
 data.                                                                   

   *** ELEMENT RESULT CALCULATION TIMES
     TYPE    NUMBER   ENAME      TOTAL CP  AVE CP

        1     20944  PLANE182      0.656   0.000031

   *** NODAL LOAD CALCULATION TIMES
     TYPE    NUMBER   ENAME      TOTAL CP  AVE CP

        1     20944  PLANE182      0.125   0.000006
 *** LOAD STEP     1   SUBSTEP     1  COMPLETED.    CUM ITER =      1
 *** TIME =   1.00000         TIME INC =   1.00000      NEW TRIANG MATRIX


 *** ANSYS BINARY FILE STATISTICS
  BUFFER SIZE USED= 16384
        3.750 MB WRITTEN ON ASSEMBLED MATRIX FILE: Main1.full
        6.000 MB WRITTEN ON RESULTS FILE: Main1.rst

 FINISH SOLUTION PROCESSING


 ***** ROUTINE COMPLETED *****  CP =        22.984



 CLEAR DATABASE AND RERUN START.ANS

 ANSYS Mechanical Enterprise                       

 CLEAR DATABASE AND RERUN START.ANS

 ANSYS Mechanical Enterprise                       

 CLEAR DATABASE AND RERUN START.ANS

 ANSYS Mechanical Enterprise                       

 CLEAR DATABASE AND RERUN START.ANS

 ANSYS Mechanical Enterprise                       

 CLEAR DATABASE AND RERUN START.ANS

 ANSYS Mechanical Enterprise                       

 *****  ANSYS SOLUTION ROUTINE  *****

 FINISH SOLUTION PROCESSING


 ***** ROUTINE COMPLETED *****  CP =        23.141



 *****  ANSYS SOLUTION ROUTINE  *****


  Local memory allocated for solver              =     27.915 MB
  Local memory required for in-core solution     =     24.734 MB
  Local memory required for out-of-core solution =     12.115 MB

 *** NOTE ***                            CP =      23.562   TIME= 08:51:29
 The Distributed Sparse Matrix Solver is currently running in the        
 in-core memory mode.  This memory mode uses the most amount of memory   
 in order to avoid using the hard drive as much as possible, which most  
 often results in the fastest solution time.  This mode is recommended   
 if enough physical memory is present to accommodate all of the solver   
 data.                                                                   

   *** ELEMENT RESULT CALCULATION TIMES
     TYPE    NUMBER   ENAME      TOTAL CP  AVE CP

        1     20674  PLANE182      0.594   0.000029

   *** NODAL LOAD CALCULATION TIMES
     TYPE    NUMBER   ENAME      TOTAL CP  AVE CP

        1     20674  PLANE182      0.172   0.000008
 *** LOAD STEP     1   SUBSTEP     1  COMPLETED.    CUM ITER =      1
 *** TIME =   1.00000         TIME INC =   1.00000      NEW TRIANG MATRIX


 *** ANSYS BINARY FILE STATISTICS
  BUFFER SIZE USED= 16384
        3.688 MB WRITTEN ON ASSEMBLED MATRIX FILE: Main1.full
        5.938 MB WRITTEN ON RESULTS FILE: Main1.rst

 FINISH SOLUTION PROCESSING


 ***** ROUTINE COMPLETED *****  CP =        24.422



 CLEAR DATABASE AND RERUN START.ANS

 ANSYS Mechanical Enterprise                       

 CLEAR DATABASE AND RERUN START.ANS

 ANSYS Mechanical Enterprise                       

 *****  ANSYS SOLUTION ROUTINE  *****

 FINISH SOLUTION PROCESSING


 ***** ROUTINE COMPLETED *****  CP =        24.453



 *****  ANSYS SOLUTION ROUTINE  *****


  Local memory allocated for solver              =     28.157 MB
  Local memory required for in-core solution     =     24.953 MB
  Local memory required for out-of-core solution =     12.284 MB

 *** NOTE ***                            CP =      24.906   TIME= 08:51:46
 The Distributed Sparse Matrix Solver is currently running in the        
 in-core memory mode.  This memory mode uses the most amount of memory   
 in order to avoid using the hard drive as much as possible, which most  
 often results in the fastest solution time.  This mode is recommended   
 if enough physical memory is present to accommodate all of the solver   
 data.                                                                   

   *** ELEMENT RESULT CALCULATION TIMES
     TYPE    NUMBER   ENAME      TOTAL CP  AVE CP

        1     21123  PLANE182      0.594   0.000028

   *** NODAL LOAD CALCULATION TIMES
     TYPE    NUMBER   ENAME      TOTAL CP  AVE CP

        1     21123  PLANE182      0.250   0.000012
 *** LOAD STEP     1   SUBSTEP     1  COMPLETED.    CUM ITER =      1
 *** TIME =   1.00000         TIME INC =   1.00000      NEW TRIANG MATRIX


 *** ANSYS BINARY FILE STATISTICS
  BUFFER SIZE USED= 16384
        3.812 MB WRITTEN ON ASSEMBLED MATRIX FILE: Main1.full
        6.062 MB WRITTEN ON RESULTS FILE: Main1.rst

 FINISH SOLUTION PROCESSING


 ***** ROUTINE COMPLETED *****  CP =        25.781



 CLEAR DATABASE AND RERUN START.ANS

 ANSYS Mechanical Enterprise                       

 *****  ANSYS SOLUTION ROUTINE  *****

 FINISH SOLUTION PROCESSING


 ***** ROUTINE COMPLETED *****  CP =        25.781



 *****  ANSYS SOLUTION ROUTINE  *****


  Local memory allocated for solver              =     26.677 MB
  Local memory required for in-core solution     =     23.665 MB
  Local memory required for out-of-core solution =     11.947 MB

 *** NOTE ***                            CP =      26.234   TIME= 08:51:59
 The Distributed Sparse Matrix Solver is currently running in the        
 in-core memory mode.  This memory mode uses the most amount of memory   
 in order to avoid using the hard drive as much as possible, which most  
 often results in the fastest solution time.  This mode is recommended   
 if enough physical memory is present to accommodate all of the solver   
 data.                                                                   

   *** ELEMENT RESULT CALCULATION TIMES
     TYPE    NUMBER   ENAME      TOTAL CP  AVE CP

        1     21014  PLANE182      0.562   0.000027

   *** NODAL LOAD CALCULATION TIMES
     TYPE    NUMBER   ENAME      TOTAL CP  AVE CP

        1     21014  PLANE182      0.188   0.000009
 *** LOAD STEP     1   SUBSTEP     1  COMPLETED.    CUM ITER =      1
 *** TIME =   1.00000         TIME INC =   1.00000      NEW TRIANG MATRIX


 *** ANSYS BINARY FILE STATISTICS
  BUFFER SIZE USED= 16384
        3.750 MB WRITTEN ON ASSEMBLED MATRIX FILE: Main1.full
        6.000 MB WRITTEN ON RESULTS FILE: Main1.rst

 FINISH SOLUTION PROCESSING


 ***** ROUTINE COMPLETED *****  CP =        26.984



 CLEAR DATABASE AND RERUN START.ANS

 ANSYS Mechanical Enterprise                       

 CLEAR DATABASE AND RERUN START.ANS

 ANSYS Mechanical Enterprise                       

 CLEAR DATABASE AND RERUN START.ANS

 ANSYS Mechanical Enterprise                       

 CLEAR DATABASE AND RERUN START.ANS

 ANSYS Mechanical Enterprise                       

 CLEAR DATABASE AND RERUN START.ANS

 ANSYS Mechanical Enterprise                       

 CLEAR DATABASE AND RERUN START.ANS

 ANSYS Mechanical Enterprise                       

 CLEAR DATABASE AND RERUN START.ANS

 ANSYS Mechanical Enterprise                       

 CLEAR DATABASE AND RERUN START.ANS

 ANSYS Mechanical Enterprise                       

 CLEAR DATABASE AND RERUN START.ANS

 ANSYS Mechanical Enterprise                       

 CLEAR DATABASE AND RERUN START.ANS

 ANSYS Mechanical Enterprise                       

 *****  ANSYS SOLUTION ROUTINE  *****

 FINISH SOLUTION PROCESSING


 ***** ROUTINE COMPLETED *****  CP =        27.266



 *****  ANSYS SOLUTION ROUTINE  *****


  Local memory allocated for solver              =     27.969 MB
  Local memory required for in-core solution     =     24.794 MB
  Local memory required for out-of-core solution =     12.311 MB

 *** NOTE ***                            CP =      27.719   TIME= 08:52:12
 The Distributed Sparse Matrix Solver is currently running in the        
 in-core memory mode.  This memory mode uses the most amount of memory   
 in order to avoid using the hard drive as much as possible, which most  
 often results in the fastest solution time.  This mode is recommended   
 if enough physical memory is present to accommodate all of the solver   
 data.                                                                   

   *** ELEMENT RESULT CALCULATION TIMES
     TYPE    NUMBER   ENAME      TOTAL CP  AVE CP

        1     21288  PLANE182      0.672   0.000032

   *** NODAL LOAD CALCULATION TIMES
     TYPE    NUMBER   ENAME      TOTAL CP  AVE CP

        1     21288  PLANE182      0.109   0.000005
 *** LOAD STEP     1   SUBSTEP     1  COMPLETED.    CUM ITER =      1
 *** TIME =   1.00000         TIME INC =   1.00000      NEW TRIANG MATRIX


 *** ANSYS BINARY FILE STATISTICS
  BUFFER SIZE USED= 16384
        3.812 MB WRITTEN ON ASSEMBLED MATRIX FILE: Main1.full
        6.062 MB WRITTEN ON RESULTS FILE: Main1.rst

 FINISH SOLUTION PROCESSING


 ***** ROUTINE COMPLETED *****  CP =        28.609



 CLEAR DATABASE AND RERUN START.ANS

 ANSYS Mechanical Enterprise                       

 CLEAR DATABASE AND RERUN START.ANS

 ANSYS Mechanical Enterprise                       

 CLEAR DATABASE AND RERUN START.ANS

 ANSYS Mechanical Enterprise                       

 CLEAR DATABASE AND RERUN START.ANS

 ANSYS Mechanical Enterprise                       

 CLEAR DATABASE AND RERUN START.ANS

 ANSYS Mechanical Enterprise                       

 CLEAR DATABASE AND RERUN START.ANS

 ANSYS Mechanical Enterprise                       

 CLEAR DATABASE AND RERUN START.ANS

 ANSYS Mechanical Enterprise                       

 CLEAR DATABASE AND RERUN START.ANS

 ANSYS Mechanical Enterprise                       

 CLEAR DATABASE AND RERUN START.ANS

 ANSYS Mechanical Enterprise                       

 CLEAR DATABASE AND RERUN START.ANS

 ANSYS Mechanical Enterprise                       

 CLEAR DATABASE AND RERUN START.ANS

 ANSYS Mechanical Enterprise                       

 *****  ANSYS SOLUTION ROUTINE  *****

 FINISH SOLUTION PROCESSING


 ***** ROUTINE COMPLETED *****  CP =        28.891



 *****  ANSYS SOLUTION ROUTINE  *****


  Local memory allocated for solver              =     28.800 MB
  Local memory required for in-core solution     =     25.522 MB
  Local memory required for out-of-core solution =     12.350 MB

 *** NOTE ***                            CP =      29.344   TIME= 08:52:25
 The Distributed Sparse Matrix Solver is currently running in the        
 in-core memory mode.  This memory mode uses the most amount of memory   
 in order to avoid using the hard drive as much as possible, which most  
 often results in the fastest solution time.  This mode is recommended   
 if enough physical memory is present to accommodate all of the solver   
 data.                                                                   

   *** ELEMENT RESULT CALCULATION TIMES
     TYPE    NUMBER   ENAME      TOTAL CP  AVE CP

        1     21696  PLANE182      0.578   0.000027

   *** NODAL LOAD CALCULATION TIMES
     TYPE    NUMBER   ENAME      TOTAL CP  AVE CP

        1     21696  PLANE182      0.172   0.000008
 *** LOAD STEP     1   SUBSTEP     1  COMPLETED.    CUM ITER =      1
 *** TIME =   1.00000         TIME INC =   1.00000      NEW TRIANG MATRIX


 *** ANSYS BINARY FILE STATISTICS
  BUFFER SIZE USED= 16384
        3.875 MB WRITTEN ON ASSEMBLED MATRIX FILE: Main1.full
        6.188 MB WRITTEN ON RESULTS FILE: Main1.rst

 FINISH SOLUTION PROCESSING


 ***** ROUTINE COMPLETED *****  CP =        30.234



 CLEAR DATABASE AND RERUN START.ANS

 ANSYS Mechanical Enterprise                       

 CLEAR DATABASE AND RERUN START.ANS

 ANSYS Mechanical Enterprise                       

 CLEAR DATABASE AND RERUN START.ANS

 ANSYS Mechanical Enterprise                       

 CLEAR DATABASE AND RERUN START.ANS

 ANSYS Mechanical Enterprise                       

 CLEAR DATABASE AND RERUN START.ANS

 ANSYS Mechanical Enterprise                       

 CLEAR DATABASE AND RERUN START.ANS

 ANSYS Mechanical Enterprise                       

 CLEAR DATABASE AND RERUN START.ANS

 ANSYS Mechanical Enterprise                       

 CLEAR DATABASE AND RERUN START.ANS

 ANSYS Mechanical Enterprise                       

 CLEAR DATABASE AND RERUN START.ANS

 ANSYS Mechanical Enterprise                       

 CLEAR DATABASE AND RERUN START.ANS

 ANSYS Mechanical Enterprise                       

 *****  ANSYS SOLUTION ROUTINE  *****

 FINISH SOLUTION PROCESSING


 ***** ROUTINE COMPLETED *****  CP =        30.484



 *****  ANSYS SOLUTION ROUTINE  *****


  Local memory allocated for solver              =     28.378 MB
  Local memory required for in-core solution     =     25.143 MB
  Local memory required for out-of-core solution =     12.353 MB

 *** NOTE ***                            CP =      30.891   TIME= 08:52:38
 The Distributed Sparse Matrix Solver is currently running in the        
 in-core memory mode.  This memory mode uses the most amount of memory   
 in order to avoid using the hard drive as much as possible, which most  
 often results in the fastest solution time.  This mode is recommended   
 if enough physical memory is present to accommodate all of the solver   
 data.                                                                   

   *** ELEMENT RESULT CALCULATION TIMES
     TYPE    NUMBER   ENAME      TOTAL CP  AVE CP

        1     20977  PLANE182      0.531   0.000025

   *** NODAL LOAD CALCULATION TIMES
     TYPE    NUMBER   ENAME      TOTAL CP  AVE CP

        1     20977  PLANE182      0.219   0.000010
 *** LOAD STEP     1   SUBSTEP     1  COMPLETED.    CUM ITER =      1
 *** TIME =   1.00000         TIME INC =   1.00000      NEW TRIANG MATRIX


 *** ANSYS BINARY FILE STATISTICS
  BUFFER SIZE USED= 16384
        3.750 MB WRITTEN ON ASSEMBLED MATRIX FILE: Main1.full
        6.000 MB WRITTEN ON RESULTS FILE: Main1.rst

 FINISH SOLUTION PROCESSING


 ***** ROUTINE COMPLETED *****  CP =        31.766



 CLEAR DATABASE AND RERUN START.ANS

 ANSYS Mechanical Enterprise                       

 CLEAR DATABASE AND RERUN START.ANS

 ANSYS Mechanical Enterprise                       

 *****  ANSYS SOLUTION ROUTINE  *****

 FINISH SOLUTION PROCESSING


 ***** ROUTINE COMPLETED *****  CP =        31.828



 *****  ANSYS SOLUTION ROUTINE  *****


  Local memory allocated for solver              =     27.523 MB
  Local memory required for in-core solution     =     24.391 MB
  Local memory required for out-of-core solution =     11.893 MB

 *** NOTE ***                            CP =      32.281   TIME= 08:52:49
 The Distributed Sparse Matrix Solver is currently running in the        
 in-core memory mode.  This memory mode uses the most amount of memory   
 in order to avoid using the hard drive as much as possible, which most  
 often results in the fastest solution time.  This mode is recommended   
 if enough physical memory is present to accommodate all of the solver   
 data.                                                                   

   *** ELEMENT RESULT CALCULATION TIMES
     TYPE    NUMBER   ENAME      TOTAL CP  AVE CP

        1     20700  PLANE182      0.500   0.000024

   *** NODAL LOAD CALCULATION TIMES
     TYPE    NUMBER   ENAME      TOTAL CP  AVE CP

        1     20700  PLANE182      0.234   0.000011
 *** LOAD STEP     1   SUBSTEP     1  COMPLETED.    CUM ITER =      1
 *** TIME =   1.00000         TIME INC =   1.00000      NEW TRIANG MATRIX


 *** ANSYS BINARY FILE STATISTICS
  BUFFER SIZE USED= 16384
        3.688 MB WRITTEN ON ASSEMBLED MATRIX FILE: Main1.full
        5.938 MB WRITTEN ON RESULTS FILE: Main1.rst

 FINISH SOLUTION PROCESSING


 ***** ROUTINE COMPLETED *****  CP =        33.062



 CLEAR DATABASE AND RERUN START.ANS

 ANSYS Mechanical Enterprise                       

 CLEAR DATABASE AND RERUN START.ANS

 ANSYS Mechanical Enterprise                       

 CLEAR DATABASE AND RERUN START.ANS

 ANSYS Mechanical Enterprise                       

 CLEAR DATABASE AND RERUN START.ANS

 ANSYS Mechanical Enterprise                       

 CLEAR DATABASE AND RERUN START.ANS

 ANSYS Mechanical Enterprise                       

 CLEAR DATABASE AND RERUN START.ANS

 ANSYS Mechanical Enterprise                       

 CLEAR DATABASE AND RERUN START.ANS

 ANSYS Mechanical Enterprise                       

 CLEAR DATABASE AND RERUN START.ANS

 ANSYS Mechanical Enterprise                       

 CLEAR DATABASE AND RERUN START.ANS

 ANSYS Mechanical Enterprise                       

 CLEAR DATABASE AND RERUN START.ANS

 ANSYS Mechanical Enterprise                       

 CLEAR DATABASE AND RERUN START.ANS

 ANSYS Mechanical Enterprise                       

 CLEAR DATABASE AND RERUN START.ANS

 ANSYS Mechanical Enterprise                       

 *****  ANSYS SOLUTION ROUTINE  *****

 FINISH SOLUTION PROCESSING


 ***** ROUTINE COMPLETED *****  CP =        33.391



 *****  ANSYS SOLUTION ROUTINE  *****


  Local memory allocated for solver              =     28.514 MB
  Local memory required for in-core solution     =     25.253 MB
  Local memory required for out-of-core solution =     12.249 MB

 *** NOTE ***                            CP =      33.797   TIME= 08:53:03
 The Distributed Sparse Matrix Solver is currently running in the        
 in-core memory mode.  This memory mode uses the most amount of memory   
 in order to avoid using the hard drive as much as possible, which most  
 often results in the fastest solution time.  This mode is recommended   
 if enough physical memory is present to accommodate all of the solver   
 data.                                                                   

   *** ELEMENT RESULT CALCULATION TIMES
     TYPE    NUMBER   ENAME      TOTAL CP  AVE CP

        1     20814  PLANE182      0.547   0.000026

   *** NODAL LOAD CALCULATION TIMES
     TYPE    NUMBER   ENAME      TOTAL CP  AVE CP

        1     20814  PLANE182      0.172   0.000008
 *** LOAD STEP     1   SUBSTEP     1  COMPLETED.    CUM ITER =      1
 *** TIME =   1.00000         TIME INC =   1.00000      NEW TRIANG MATRIX


 *** ANSYS BINARY FILE STATISTICS
  BUFFER SIZE USED= 16384
        3.750 MB WRITTEN ON ASSEMBLED MATRIX FILE: Main1.full
        5.938 MB WRITTEN ON RESULTS FILE: Main1.rst

 FINISH SOLUTION PROCESSING


 ***** ROUTINE COMPLETED *****  CP =        34.812



 CLEAR DATABASE AND RERUN START.ANS

 ANSYS Mechanical Enterprise                       

 *****  ANSYS SOLUTION ROUTINE  *****

 FINISH SOLUTION PROCESSING


 ***** ROUTINE COMPLETED *****  CP =        34.828



 *****  ANSYS SOLUTION ROUTINE  *****


  Local memory allocated for solver              =     28.040 MB
  Local memory required for in-core solution     =     24.838 MB
  Local memory required for out-of-core solution =     12.104 MB

 *** NOTE ***                            CP =      35.469   TIME= 08:53:15
 The Distributed Sparse Matrix Solver is currently running in the        
 in-core memory mode.  This memory mode uses the most amount of memory   
 in order to avoid using the hard drive as much as possible, which most  
 often results in the fastest solution time.  This mode is recommended   
 if enough physical memory is present to accommodate all of the solver   
 data.                                                                   

   *** ELEMENT RESULT CALCULATION TIMES
     TYPE    NUMBER   ENAME      TOTAL CP  AVE CP

        1     20548  PLANE182      0.500   0.000024

   *** NODAL LOAD CALCULATION TIMES
     TYPE    NUMBER   ENAME      TOTAL CP  AVE CP

        1     20548  PLANE182      0.281   0.000014
 *** LOAD STEP     1   SUBSTEP     1  COMPLETED.    CUM ITER =      1
 *** TIME =   1.00000         TIME INC =   1.00000      NEW TRIANG MATRIX


 *** ANSYS BINARY FILE STATISTICS
  BUFFER SIZE USED= 16384
        3.688 MB WRITTEN ON ASSEMBLED MATRIX FILE: Main1.full
        5.875 MB WRITTEN ON RESULTS FILE: Main1.rst

 FINISH SOLUTION PROCESSING


 ***** ROUTINE COMPLETED *****  CP =        36.297



 CLEAR DATABASE AND RERUN START.ANS

 ANSYS Mechanical Enterprise                       

 *****  ANSYS SOLUTION ROUTINE  *****

 FINISH SOLUTION PROCESSING


 ***** ROUTINE COMPLETED *****  CP =        36.312



 *****  ANSYS SOLUTION ROUTINE  *****


  Local memory allocated for solver              =     26.592 MB
  Local memory required for in-core solution     =     23.595 MB
  Local memory required for out-of-core solution =     11.947 MB

 *** NOTE ***                            CP =      36.766   TIME= 08:53:28
 The Distributed Sparse Matrix Solver is currently running in the        
 in-core memory mode.  This memory mode uses the most amount of memory   
 in order to avoid using the hard drive as much as possible, which most  
 often results in the fastest solution time.  This mode is recommended   
 if enough physical memory is present to accommodate all of the solver   
 data.                                                                   

   *** ELEMENT RESULT CALCULATION TIMES
     TYPE    NUMBER   ENAME      TOTAL CP  AVE CP

        1     21246  PLANE182      0.531   0.000025

   *** NODAL LOAD CALCULATION TIMES
     TYPE    NUMBER   ENAME      TOTAL CP  AVE CP

        1     21246  PLANE182      0.250   0.000012
 *** LOAD STEP     1   SUBSTEP     1  COMPLETED.    CUM ITER =      1
 *** TIME =   1.00000         TIME INC =   1.00000      NEW TRIANG MATRIX


 *** ANSYS BINARY FILE STATISTICS
  BUFFER SIZE USED= 16384
        3.812 MB WRITTEN ON ASSEMBLED MATRIX FILE: Main1.full
        6.062 MB WRITTEN ON RESULTS FILE: Main1.rst

 FINISH SOLUTION PROCESSING


 ***** ROUTINE COMPLETED *****  CP =        37.672



 CLEAR DATABASE AND RERUN START.ANS

 ANSYS Mechanical Enterprise                       

 CLEAR DATABASE AND RERUN START.ANS

 ANSYS Mechanical Enterprise                       

 *****  ANSYS SOLUTION ROUTINE  *****

 FINISH SOLUTION PROCESSING


 ***** ROUTINE COMPLETED *****  CP =        37.719



 *****  ANSYS SOLUTION ROUTINE  *****


  Local memory allocated for solver              =     27.511 MB
  Local memory required for in-core solution     =     24.392 MB
  Local memory required for out-of-core solution =     12.161 MB

 *** NOTE ***                            CP =      38.203   TIME= 08:53:40
 The Distributed Sparse Matrix Solver is currently running in the        
 in-core memory mode.  This memory mode uses the most amount of memory   
 in order to avoid using the hard drive as much as possible, which most  
 often results in the fastest solution time.  This mode is recommended   
 if enough physical memory is present to accommodate all of the solver   
 data.                                                                   

   *** ELEMENT RESULT CALCULATION TIMES
     TYPE    NUMBER   ENAME      TOTAL CP  AVE CP

        1     21198  PLANE182      0.641   0.000030

   *** NODAL LOAD CALCULATION TIMES
     TYPE    NUMBER   ENAME      TOTAL CP  AVE CP

        1     21198  PLANE182      0.125   0.000006
 *** LOAD STEP     1   SUBSTEP     1  COMPLETED.    CUM ITER =      1
 *** TIME =   1.00000         TIME INC =   1.00000      NEW TRIANG MATRIX


 *** ANSYS BINARY FILE STATISTICS
  BUFFER SIZE USED= 16384
        3.812 MB WRITTEN ON ASSEMBLED MATRIX FILE: Main1.full
        6.062 MB WRITTEN ON RESULTS FILE: Main1.rst

 FINISH SOLUTION PROCESSING


 ***** ROUTINE COMPLETED *****  CP =        39.000



 CLEAR DATABASE AND RERUN START.ANS

 ANSYS Mechanical Enterprise                       

 CLEAR DATABASE AND RERUN START.ANS

 ANSYS Mechanical Enterprise                       

 CLEAR DATABASE AND RERUN START.ANS

 ANSYS Mechanical Enterprise                       

 CLEAR DATABASE AND RERUN START.ANS

 ANSYS Mechanical Enterprise                       

 *****  ANSYS SOLUTION ROUTINE  *****

 FINISH SOLUTION PROCESSING


 ***** ROUTINE COMPLETED *****  CP =        39.094



 *****  ANSYS SOLUTION ROUTINE  *****


  Local memory allocated for solver              =     27.421 MB
  Local memory required for in-core solution     =     24.314 MB
  Local memory required for out-of-core solution =     11.952 MB

 *** NOTE ***                            CP =      39.531   TIME= 08:53:54
 The Distributed Sparse Matrix Solver is currently running in the        
 in-core memory mode.  This memory mode uses the most amount of memory   
 in order to avoid using the hard drive as much as possible, which most  
 often results in the fastest solution time.  This mode is recommended   
 if enough physical memory is present to accommodate all of the solver   
 data.                                                                   

   *** ELEMENT RESULT CALCULATION TIMES
     TYPE    NUMBER   ENAME      TOTAL CP  AVE CP

        1     21185  PLANE182      0.641   0.000030

   *** NODAL LOAD CALCULATION TIMES
     TYPE    NUMBER   ENAME      TOTAL CP  AVE CP

        1     21185  PLANE182      0.203   0.000010
 *** LOAD STEP     1   SUBSTEP     1  COMPLETED.    CUM ITER =      1
 *** TIME =   1.00000         TIME INC =   1.00000      NEW TRIANG MATRIX


 *** ANSYS BINARY FILE STATISTICS
  BUFFER SIZE USED= 16384
        3.812 MB WRITTEN ON ASSEMBLED MATRIX FILE: Main1.full
        6.062 MB WRITTEN ON RESULTS FILE: Main1.rst

 FINISH SOLUTION PROCESSING


 ***** ROUTINE COMPLETED *****  CP =        40.344



 CLEAR DATABASE AND RERUN START.ANS

 ANSYS Mechanical Enterprise                       

 CLEAR DATABASE AND RERUN START.ANS

 ANSYS Mechanical Enterprise                       

 CLEAR DATABASE AND RERUN START.ANS

 ANSYS Mechanical Enterprise                       

 CLEAR DATABASE AND RERUN START.ANS

 ANSYS Mechanical Enterprise                       

 CLEAR DATABASE AND RERUN START.ANS

 ANSYS Mechanical Enterprise                       

 CLEAR DATABASE AND RERUN START.ANS

 ANSYS Mechanical Enterprise                       

 CLEAR DATABASE AND RERUN START.ANS

 ANSYS Mechanical Enterprise                       

 CLEAR DATABASE AND RERUN START.ANS

 ANSYS Mechanical Enterprise                       

 CLEAR DATABASE AND RERUN START.ANS

 ANSYS Mechanical Enterprise                       

 *****  ANSYS SOLUTION ROUTINE  *****

 FINISH SOLUTION PROCESSING


 ***** ROUTINE COMPLETED *****  CP =        40.547



 *****  ANSYS SOLUTION ROUTINE  *****


  Local memory allocated for solver              =     26.575 MB
  Local memory required for in-core solution     =     23.570 MB
  Local memory required for out-of-core solution =     11.822 MB

 *** NOTE ***                            CP =      40.953   TIME= 08:54:10
 The Distributed Sparse Matrix Solver is currently running in the        
 in-core memory mode.  This memory mode uses the most amount of memory   
 in order to avoid using the hard drive as much as possible, which most  
 often results in the fastest solution time.  This mode is recommended   
 if enough physical memory is present to accommodate all of the solver   
 data.                                                                   

   *** ELEMENT RESULT CALCULATION TIMES
     TYPE    NUMBER   ENAME      TOTAL CP  AVE CP

        1     20751  PLANE182      0.531   0.000026

   *** NODAL LOAD CALCULATION TIMES
     TYPE    NUMBER   ENAME      TOTAL CP  AVE CP

        1     20751  PLANE182      0.250   0.000012
 *** LOAD STEP     1   SUBSTEP     1  COMPLETED.    CUM ITER =      1
 *** TIME =   1.00000         TIME INC =   1.00000      NEW TRIANG MATRIX


 *** ANSYS BINARY FILE STATISTICS
  BUFFER SIZE USED= 16384
        3.688 MB WRITTEN ON ASSEMBLED MATRIX FILE: Main1.full
        5.938 MB WRITTEN ON RESULTS FILE: Main1.rst

 FINISH SOLUTION PROCESSING


 ***** ROUTINE COMPLETED *****  CP =        41.750



 CLEAR DATABASE AND RERUN START.ANS

 ANSYS Mechanical Enterprise                       

 CLEAR DATABASE AND RERUN START.ANS

 ANSYS Mechanical Enterprise                       

 CLEAR DATABASE AND RERUN START.ANS

 ANSYS Mechanical Enterprise                       

 CLEAR DATABASE AND RERUN START.ANS

 ANSYS Mechanical Enterprise                       

 CLEAR DATABASE AND RERUN START.ANS

 ANSYS Mechanical Enterprise                       

 CLEAR DATABASE AND RERUN START.ANS

 ANSYS Mechanical Enterprise                       

 CLEAR DATABASE AND RERUN START.ANS

 ANSYS Mechanical Enterprise                       

 CLEAR DATABASE AND RERUN START.ANS

 ANSYS Mechanical Enterprise                       

 CLEAR DATABASE AND RERUN START.ANS

 ANSYS Mechanical Enterprise                       

 CLEAR DATABASE AND RERUN START.ANS

 ANSYS Mechanical Enterprise                       

 CLEAR DATABASE AND RERUN START.ANS

 ANSYS Mechanical Enterprise                       

 CLEAR DATABASE AND RERUN START.ANS

 ANSYS Mechanical Enterprise                       

 CLEAR DATABASE AND RERUN START.ANS

 ANSYS Mechanical Enterprise                       

 CLEAR DATABASE AND RERUN START.ANS

 ANSYS Mechanical Enterprise                       

 CLEAR DATABASE AND RERUN START.ANS

 ANSYS Mechanical Enterprise                       

 CLEAR DATABASE AND RERUN START.ANS

 ANSYS Mechanical Enterprise                       

 *****  ANSYS SOLUTION ROUTINE  *****

 FINISH SOLUTION PROCESSING


 ***** ROUTINE COMPLETED *****  CP =        42.188



 *****  ANSYS SOLUTION ROUTINE  *****


  Local memory allocated for solver              =     28.460 MB
  Local memory required for in-core solution     =     25.216 MB
  Local memory required for out-of-core solution =     12.387 MB

 *** NOTE ***                            CP =      42.641   TIME= 08:54:25
 The Distributed Sparse Matrix Solver is currently running in the        
 in-core memory mode.  This memory mode uses the most amount of memory   
 in order to avoid using the hard drive as much as possible, which most  
 often results in the fastest solution time.  This mode is recommended   
 if enough physical memory is present to accommodate all of the solver   
 data.                                                                   

   *** ELEMENT RESULT CALCULATION TIMES
     TYPE    NUMBER   ENAME      TOTAL CP  AVE CP

        1     21106  PLANE182      0.594   0.000028

   *** NODAL LOAD CALCULATION TIMES
     TYPE    NUMBER   ENAME      TOTAL CP  AVE CP

        1     21106  PLANE182      0.141   0.000007
 *** LOAD STEP     1   SUBSTEP     1  COMPLETED.    CUM ITER =      1
 *** TIME =   1.00000         TIME INC =   1.00000      NEW TRIANG MATRIX


 *** ANSYS BINARY FILE STATISTICS
  BUFFER SIZE USED= 16384
        3.750 MB WRITTEN ON ASSEMBLED MATRIX FILE: Main1.full
        6.062 MB WRITTEN ON RESULTS FILE: Main1.rst

 FINISH SOLUTION PROCESSING


 ***** ROUTINE COMPLETED *****  CP =        43.500



 CLEAR DATABASE AND RERUN START.ANS

 ANSYS Mechanical Enterprise                       

 CLEAR DATABASE AND RERUN START.ANS

 ANSYS Mechanical Enterprise                       

 *****  ANSYS SOLUTION ROUTINE  *****

 FINISH SOLUTION PROCESSING


 ***** ROUTINE COMPLETED *****  CP =        43.547



 *****  ANSYS SOLUTION ROUTINE  *****


  Local memory allocated for solver              =     28.231 MB
  Local memory required for in-core solution     =     25.016 MB
  Local memory required for out-of-core solution =     12.216 MB

 *** NOTE ***                            CP =      44.016   TIME= 08:54:37
 The Distributed Sparse Matrix Solver is currently running in the        
 in-core memory mode.  This memory mode uses the most amount of memory   
 in order to avoid using the hard drive as much as possible, which most  
 often results in the fastest solution time.  This mode is recommended   
 if enough physical memory is present to accommodate all of the solver   
 data.                                                                   

   *** ELEMENT RESULT CALCULATION TIMES
     TYPE    NUMBER   ENAME      TOTAL CP  AVE CP

        1     21205  PLANE182      0.578   0.000027

   *** NODAL LOAD CALCULATION TIMES
     TYPE    NUMBER   ENAME      TOTAL CP  AVE CP

        1     21205  PLANE182      0.125   0.000006
 *** LOAD STEP     1   SUBSTEP     1  COMPLETED.    CUM ITER =      1
 *** TIME =   1.00000         TIME INC =   1.00000      NEW TRIANG MATRIX


 *** ANSYS BINARY FILE STATISTICS
  BUFFER SIZE USED= 16384
        3.812 MB WRITTEN ON ASSEMBLED MATRIX FILE: Main1.full
        6.062 MB WRITTEN ON RESULTS FILE: Main1.rst

 FINISH SOLUTION PROCESSING


 ***** ROUTINE COMPLETED *****  CP =        44.828



 CLEAR DATABASE AND RERUN START.ANS

 ANSYS Mechanical Enterprise                       

 CLEAR DATABASE AND RERUN START.ANS

 ANSYS Mechanical Enterprise                       

 CLEAR DATABASE AND RERUN START.ANS

 ANSYS Mechanical Enterprise                       

 CLEAR DATABASE AND RERUN START.ANS

 ANSYS Mechanical Enterprise                       

 CLEAR DATABASE AND RERUN START.ANS

 ANSYS Mechanical Enterprise                       

 *****  ANSYS SOLUTION ROUTINE  *****

 FINISH SOLUTION PROCESSING


 ***** ROUTINE COMPLETED *****  CP =        44.969



 *****  ANSYS SOLUTION ROUTINE  *****


  Local memory allocated for solver              =     25.735 MB
  Local memory required for in-core solution     =     22.840 MB
  Local memory required for out-of-core solution =     11.715 MB

 *** NOTE ***                            CP =      45.500   TIME= 08:54:50
 The Distributed Sparse Matrix Solver is currently running in the        
 in-core memory mode.  This memory mode uses the most amount of memory   
 in order to avoid using the hard drive as much as possible, which most  
 often results in the fastest solution time.  This mode is recommended   
 if enough physical memory is present to accommodate all of the solver   
 data.                                                                   

   *** ELEMENT RESULT CALCULATION TIMES
     TYPE    NUMBER   ENAME      TOTAL CP  AVE CP

        1     20743  PLANE182      0.547   0.000026

   *** NODAL LOAD CALCULATION TIMES
     TYPE    NUMBER   ENAME      TOTAL CP  AVE CP

        1     20743  PLANE182      0.203   0.000010
 *** LOAD STEP     1   SUBSTEP     1  COMPLETED.    CUM ITER =      1
 *** TIME =   1.00000         TIME INC =   1.00000      NEW TRIANG MATRIX


 *** ANSYS BINARY FILE STATISTICS
  BUFFER SIZE USED= 16384
        3.688 MB WRITTEN ON ASSEMBLED MATRIX FILE: Main1.full
        5.938 MB WRITTEN ON RESULTS FILE: Main1.rst

 FINISH SOLUTION PROCESSING


 ***** ROUTINE COMPLETED *****  CP =        46.281



 CLEAR DATABASE AND RERUN START.ANS

 ANSYS Mechanical Enterprise                       

 CLEAR DATABASE AND RERUN START.ANS

 ANSYS Mechanical Enterprise                       

 CLEAR DATABASE AND RERUN START.ANS

 ANSYS Mechanical Enterprise                       

 *****  ANSYS SOLUTION ROUTINE  *****

 FINISH SOLUTION PROCESSING


 ***** ROUTINE COMPLETED *****  CP =        46.328



 *****  ANSYS SOLUTION ROUTINE  *****


  Local memory allocated for solver              =     28.470 MB
  Local memory required for in-core solution     =     25.216 MB
  Local memory required for out-of-core solution =     12.229 MB

 *** NOTE ***                            CP =      46.734   TIME= 08:55:04
 The Distributed Sparse Matrix Solver is currently running in the        
 in-core memory mode.  This memory mode uses the most amount of memory   
 in order to avoid using the hard drive as much as possible, which most  
 often results in the fastest solution time.  This mode is recommended   
 if enough physical memory is present to accommodate all of the solver   
 data.                                                                   

   *** ELEMENT RESULT CALCULATION TIMES
     TYPE    NUMBER   ENAME      TOTAL CP  AVE CP

        1     20801  PLANE182      0.500   0.000024

   *** NODAL LOAD CALCULATION TIMES
     TYPE    NUMBER   ENAME      TOTAL CP  AVE CP

        1     20801  PLANE182      0.219   0.000011
 *** LOAD STEP     1   SUBSTEP     1  COMPLETED.    CUM ITER =      1
 *** TIME =   1.00000         TIME INC =   1.00000      NEW TRIANG MATRIX


 *** ANSYS BINARY FILE STATISTICS
  BUFFER SIZE USED= 16384
        3.750 MB WRITTEN ON ASSEMBLED MATRIX FILE: Main1.full
        5.938 MB WRITTEN ON RESULTS FILE: Main1.rst

 FINISH SOLUTION PROCESSING


 ***** ROUTINE COMPLETED *****  CP =        47.531



 CLEAR DATABASE AND RERUN START.ANS

 ANSYS Mechanical Enterprise                       

 CLEAR DATABASE AND RERUN START.ANS

 ANSYS Mechanical Enterprise                       

 CLEAR DATABASE AND RERUN START.ANS

 ANSYS Mechanical Enterprise                       

 CLEAR DATABASE AND RERUN START.ANS

 ANSYS Mechanical Enterprise                       

 *****  ANSYS SOLUTION ROUTINE  *****

 FINISH SOLUTION PROCESSING


 ***** ROUTINE COMPLETED *****  CP =        47.609



 *****  ANSYS SOLUTION ROUTINE  *****


  Local memory allocated for solver              =     26.770 MB
  Local memory required for in-core solution     =     23.721 MB
  Local memory required for out-of-core solution =     11.602 MB

 *** NOTE ***                            CP =      48.031   TIME= 08:55:17
 The Distributed Sparse Matrix Solver is currently running in the        
 in-core memory mode.  This memory mode uses the most amount of memory   
 in order to avoid using the hard drive as much as possible, which most  
 often results in the fastest solution time.  This mode is recommended   
 if enough physical memory is present to accommodate all of the solver   
 data.                                                                   

   *** ELEMENT RESULT CALCULATION TIMES
     TYPE    NUMBER   ENAME      TOTAL CP  AVE CP

        1     19996  PLANE182      0.531   0.000027

   *** NODAL LOAD CALCULATION TIMES
     TYPE    NUMBER   ENAME      TOTAL CP  AVE CP

        1     19996  PLANE182      0.203   0.000010
 *** LOAD STEP     1   SUBSTEP     1  COMPLETED.    CUM ITER =      1
 *** TIME =   1.00000         TIME INC =   1.00000      NEW TRIANG MATRIX


 *** ANSYS BINARY FILE STATISTICS
  BUFFER SIZE USED= 16384
        3.562 MB WRITTEN ON ASSEMBLED MATRIX FILE: Main1.full
        5.750 MB WRITTEN ON RESULTS FILE: Main1.rst

 FINISH SOLUTION PROCESSING


 ***** ROUTINE COMPLETED *****  CP =        48.859



 CLEAR DATABASE AND RERUN START.ANS

 ANSYS Mechanical Enterprise                       

 CLEAR DATABASE AND RERUN START.ANS

 ANSYS Mechanical Enterprise                       

 CLEAR DATABASE AND RERUN START.ANS

 ANSYS Mechanical Enterprise                       

 CLEAR DATABASE AND RERUN START.ANS

 ANSYS Mechanical Enterprise                       

 CLEAR DATABASE AND RERUN START.ANS

 ANSYS Mechanical Enterprise                       

 *****  ANSYS SOLUTION ROUTINE  *****

 FINISH SOLUTION PROCESSING


 ***** ROUTINE COMPLETED *****  CP =        48.938



 *****  ANSYS SOLUTION ROUTINE  *****


  Local memory allocated for solver              =     28.488 MB
  Local memory required for in-core solution     =     25.242 MB
  Local memory required for out-of-core solution =     12.352 MB

 *** NOTE ***                            CP =      49.406   TIME= 08:55:32
 The Distributed Sparse Matrix Solver is currently running in the        
 in-core memory mode.  This memory mode uses the most amount of memory   
 in order to avoid using the hard drive as much as possible, which most  
 often results in the fastest solution time.  This mode is recommended   
 if enough physical memory is present to accommodate all of the solver   
 data.                                                                   

   *** ELEMENT RESULT CALCULATION TIMES
     TYPE    NUMBER   ENAME      TOTAL CP  AVE CP

        1     21252  PLANE182      0.531   0.000025

   *** NODAL LOAD CALCULATION TIMES
     TYPE    NUMBER   ENAME      TOTAL CP  AVE CP

        1     21252  PLANE182      0.250   0.000012
 *** LOAD STEP     1   SUBSTEP     1  COMPLETED.    CUM ITER =      1
 *** TIME =   1.00000         TIME INC =   1.00000      NEW TRIANG MATRIX


 *** ANSYS BINARY FILE STATISTICS
  BUFFER SIZE USED= 16384
        3.812 MB WRITTEN ON ASSEMBLED MATRIX FILE: Main1.full
        6.062 MB WRITTEN ON RESULTS FILE: Main1.rst

 FINISH SOLUTION PROCESSING


 ***** ROUTINE COMPLETED *****  CP =        50.281



 CLEAR DATABASE AND RERUN START.ANS

 ANSYS Mechanical Enterprise                       

 CLEAR DATABASE AND RERUN START.ANS

 ANSYS Mechanical Enterprise                       

 *****  ANSYS SOLUTION ROUTINE  *****

 FINISH SOLUTION PROCESSING


 ***** ROUTINE COMPLETED *****  CP =        50.312



 *****  ANSYS SOLUTION ROUTINE  *****


  Local memory allocated for solver              =     30.624 MB
  Local memory required for in-core solution     =     27.123 MB
  Local memory required for out-of-core solution =     13.109 MB

 *** NOTE ***                            CP =      50.781   TIME= 08:55:45
 The Distributed Sparse Matrix Solver is currently running in the        
 in-core memory mode.  This memory mode uses the most amount of memory   
 in order to avoid using the hard drive as much as possible, which most  
 often results in the fastest solution time.  This mode is recommended   
 if enough physical memory is present to accommodate all of the solver   
 data.                                                                   

   *** ELEMENT RESULT CALCULATION TIMES
     TYPE    NUMBER   ENAME      TOTAL CP  AVE CP

        1     22409  PLANE182      0.547   0.000024

   *** NODAL LOAD CALCULATION TIMES
     TYPE    NUMBER   ENAME      TOTAL CP  AVE CP

        1     22409  PLANE182      0.219   0.000010
 *** LOAD STEP     1   SUBSTEP     1  COMPLETED.    CUM ITER =      1
 *** TIME =   1.00000         TIME INC =   1.00000      NEW TRIANG MATRIX


 *** ANSYS BINARY FILE STATISTICS
  BUFFER SIZE USED= 16384
        4.000 MB WRITTEN ON ASSEMBLED MATRIX FILE: Main1.full
        6.375 MB WRITTEN ON RESULTS FILE: Main1.rst

 FINISH SOLUTION PROCESSING


 ***** ROUTINE COMPLETED *****  CP =        51.641



 CLEAR DATABASE AND RERUN START.ANS

 ANSYS Mechanical Enterprise                       

 CLEAR DATABASE AND RERUN START.ANS

 ANSYS Mechanical Enterprise                       

 *****  ANSYS SOLUTION ROUTINE  *****

 FINISH SOLUTION PROCESSING


 ***** ROUTINE COMPLETED *****  CP =        51.703



 *****  ANSYS SOLUTION ROUTINE  *****


  Local memory allocated for solver              =     28.691 MB
  Local memory required for in-core solution     =     25.424 MB
  Local memory required for out-of-core solution =     12.494 MB

 *** NOTE ***                            CP =      52.109   TIME= 08:55:58
 The Distributed Sparse Matrix Solver is currently running in the        
 in-core memory mode.  This memory mode uses the most amount of memory   
 in order to avoid using the hard drive as much as possible, which most  
 often results in the fastest solution time.  This mode is recommended   
 if enough physical memory is present to accommodate all of the solver   
 data.                                                                   

   *** ELEMENT RESULT CALCULATION TIMES
     TYPE    NUMBER   ENAME      TOTAL CP  AVE CP

        1     21490  PLANE182      0.562   0.000026

   *** NODAL LOAD CALCULATION TIMES
     TYPE    NUMBER   ENAME      TOTAL CP  AVE CP

        1     21490  PLANE182      0.156   0.000007
 *** LOAD STEP     1   SUBSTEP     1  COMPLETED.    CUM ITER =      1
 *** TIME =   1.00000         TIME INC =   1.00000      NEW TRIANG MATRIX


 *** ANSYS BINARY FILE STATISTICS
  BUFFER SIZE USED= 16384
        3.875 MB WRITTEN ON ASSEMBLED MATRIX FILE: Main1.full
        6.125 MB WRITTEN ON RESULTS FILE: Main1.rst

 FINISH SOLUTION PROCESSING


 ***** ROUTINE COMPLETED *****  CP =        52.938



 CLEAR DATABASE AND RERUN START.ANS

 ANSYS Mechanical Enterprise                       

 CLEAR DATABASE AND RERUN START.ANS

 ANSYS Mechanical Enterprise                       

 CLEAR DATABASE AND RERUN START.ANS

 ANSYS Mechanical Enterprise                       

 CLEAR DATABASE AND RERUN START.ANS

 ANSYS Mechanical Enterprise                       

 CLEAR DATABASE AND RERUN START.ANS

 ANSYS Mechanical Enterprise                       

 CLEAR DATABASE AND RERUN START.ANS

 ANSYS Mechanical Enterprise                       

 CLEAR DATABASE AND RERUN START.ANS

 ANSYS Mechanical Enterprise                       

 CLEAR DATABASE AND RERUN START.ANS

 ANSYS Mechanical Enterprise                       

 CLEAR DATABASE AND RERUN START.ANS

 ANSYS Mechanical Enterprise                       

 CLEAR DATABASE AND RERUN START.ANS

 ANSYS Mechanical Enterprise                       

 CLEAR DATABASE AND RERUN START.ANS

 ANSYS Mechanical Enterprise                       

 CLEAR DATABASE AND RERUN START.ANS

 ANSYS Mechanical Enterprise                       

 *****  ANSYS SOLUTION ROUTINE  *****

 FINISH SOLUTION PROCESSING


 ***** ROUTINE COMPLETED *****  CP =        53.297



 *****  ANSYS SOLUTION ROUTINE  *****


  Local memory allocated for solver              =     29.768 MB
  Local memory required for in-core solution     =     26.371 MB
  Local memory required for out-of-core solution =     12.797 MB

 *** NOTE ***                            CP =      53.766   TIME= 08:56:12
 The Distributed Sparse Matrix Solver is currently running in the        
 in-core memory mode.  This memory mode uses the most amount of memory   
 in order to avoid using the hard drive as much as possible, which most  
 often results in the fastest solution time.  This mode is recommended   
 if enough physical memory is present to accommodate all of the solver   
 data.                                                                   

   *** ELEMENT RESULT CALCULATION TIMES
     TYPE    NUMBER   ENAME      TOTAL CP  AVE CP

        1     22000  PLANE182      0.500   0.000023

   *** NODAL LOAD CALCULATION TIMES
     TYPE    NUMBER   ENAME      TOTAL CP  AVE CP

        1     22000  PLANE182      0.297   0.000013
 *** LOAD STEP     1   SUBSTEP     1  COMPLETED.    CUM ITER =      1
 *** TIME =   1.00000         TIME INC =   1.00000      NEW TRIANG MATRIX


 *** ANSYS BINARY FILE STATISTICS
  BUFFER SIZE USED= 16384
        3.938 MB WRITTEN ON ASSEMBLED MATRIX FILE: Main1.full
        6.312 MB WRITTEN ON RESULTS FILE: Main1.rst

 FINISH SOLUTION PROCESSING


 ***** ROUTINE COMPLETED *****  CP =        54.625



 CLEAR DATABASE AND RERUN START.ANS

 ANSYS Mechanical Enterprise                       

 CLEAR DATABASE AND RERUN START.ANS

 ANSYS Mechanical Enterprise                       

 CLEAR DATABASE AND RERUN START.ANS

 ANSYS Mechanical Enterprise                       

 CLEAR DATABASE AND RERUN START.ANS

 ANSYS Mechanical Enterprise                       

 CLEAR DATABASE AND RERUN START.ANS

 ANSYS Mechanical Enterprise                       

 CLEAR DATABASE AND RERUN START.ANS

 ANSYS Mechanical Enterprise                       

 CLEAR DATABASE AND RERUN START.ANS

 ANSYS Mechanical Enterprise                       

 CLEAR DATABASE AND RERUN START.ANS

 ANSYS Mechanical Enterprise                       

 CLEAR DATABASE AND RERUN START.ANS

 ANSYS Mechanical Enterprise                       

 CLEAR DATABASE AND RERUN START.ANS

 ANSYS Mechanical Enterprise                       

 CLEAR DATABASE AND RERUN START.ANS

 ANSYS Mechanical Enterprise                       

 CLEAR DATABASE AND RERUN START.ANS

 ANSYS Mechanical Enterprise                       

 CLEAR DATABASE AND RERUN START.ANS

 ANSYS Mechanical Enterprise                       

 CLEAR DATABASE AND RERUN START.ANS

 ANSYS Mechanical Enterprise                       

 CLEAR DATABASE AND RERUN START.ANS

 ANSYS Mechanical Enterprise                       

 CLEAR DATABASE AND RERUN START.ANS

 ANSYS Mechanical Enterprise                       

 CLEAR DATABASE AND RERUN START.ANS

 ANSYS Mechanical Enterprise                       

 CLEAR DATABASE AND RERUN START.ANS

 ANSYS Mechanical Enterprise                       

 CLEAR DATABASE AND RERUN START.ANS

 ANSYS Mechanical Enterprise                       

 CLEAR DATABASE AND RERUN START.ANS

 ANSYS Mechanical Enterprise                       

 CLEAR DATABASE AND RERUN START.ANS

 ANSYS Mechanical Enterprise                       

 CLEAR DATABASE AND RERUN START.ANS

 ANSYS Mechanical Enterprise                       

 CLEAR DATABASE AND RERUN START.ANS

 ANSYS Mechanical Enterprise                       

 CLEAR DATABASE AND RERUN START.ANS

 ANSYS Mechanical Enterprise                       

 CLEAR DATABASE AND RERUN START.ANS

 ANSYS Mechanical Enterprise                       

 CLEAR DATABASE AND RERUN START.ANS

 ANSYS Mechanical Enterprise                       

 CLEAR DATABASE AND RERUN START.ANS

 ANSYS Mechanical Enterprise                       

 CLEAR DATABASE AND RERUN START.ANS

 ANSYS Mechanical Enterprise                       

 CLEAR DATABASE AND RERUN START.ANS

 ANSYS Mechanical Enterprise                       

 CLEAR DATABASE AND RERUN START.ANS

 ANSYS Mechanical Enterprise                       

 CLEAR DATABASE AND RERUN START.ANS

 ANSYS Mechanical Enterprise                       

 CLEAR DATABASE AND RERUN START.ANS

 ANSYS Mechanical Enterprise                       

 *****  ANSYS SOLUTION ROUTINE  *****

 FINISH SOLUTION PROCESSING


 ***** ROUTINE COMPLETED *****  CP =        55.469



 *****  ANSYS SOLUTION ROUTINE  *****


  Local memory allocated for solver              =     29.536 MB
  Local memory required for in-core solution     =     26.169 MB
  Local memory required for out-of-core solution =     12.824 MB

 *** NOTE ***                            CP =      55.906   TIME= 08:56:29
 The Distributed Sparse Matrix Solver is currently running in the        
 in-core memory mode.  This memory mode uses the most amount of memory   
 in order to avoid using the hard drive as much as possible, which most  
 often results in the fastest solution time.  This mode is recommended   
 if enough physical memory is present to accommodate all of the solver   
 data.                                                                   

   *** ELEMENT RESULT CALCULATION TIMES
     TYPE    NUMBER   ENAME      TOTAL CP  AVE CP

        1     21949  PLANE182      0.609   0.000028

   *** NODAL LOAD CALCULATION TIMES
     TYPE    NUMBER   ENAME      TOTAL CP  AVE CP

        1     21949  PLANE182      0.203   0.000009
 *** LOAD STEP     1   SUBSTEP     1  COMPLETED.    CUM ITER =      1
 *** TIME =   1.00000         TIME INC =   1.00000      NEW TRIANG MATRIX


 *** ANSYS BINARY FILE STATISTICS
  BUFFER SIZE USED= 16384
        3.938 MB WRITTEN ON ASSEMBLED MATRIX FILE: Main1.full
        6.250 MB WRITTEN ON RESULTS FILE: Main1.rst

 FINISH SOLUTION PROCESSING


 ***** ROUTINE COMPLETED *****  CP =        56.812



 CLEAR DATABASE AND RERUN START.ANS

 ANSYS Mechanical Enterprise                       

 *****  ANSYS SOLUTION ROUTINE  *****

 FINISH SOLUTION PROCESSING


 ***** ROUTINE COMPLETED *****  CP =        56.812



 *****  ANSYS SOLUTION ROUTINE  *****


  Local memory allocated for solver              =     28.909 MB
  Local memory required for in-core solution     =     25.606 MB
  Local memory required for out-of-core solution =     12.409 MB

 *** NOTE ***                            CP =      57.266   TIME= 08:56:43
 The Distributed Sparse Matrix Solver is currently running in the        
 in-core memory mode.  This memory mode uses the most amount of memory   
 in order to avoid using the hard drive as much as possible, which most  
 often results in the fastest solution time.  This mode is recommended   
 if enough physical memory is present to accommodate all of the solver   
 data.                                                                   

   *** ELEMENT RESULT CALCULATION TIMES
     TYPE    NUMBER   ENAME      TOTAL CP  AVE CP

        1     21142  PLANE182      0.578   0.000027

   *** NODAL LOAD CALCULATION TIMES
     TYPE    NUMBER   ENAME      TOTAL CP  AVE CP

        1     21142  PLANE182      0.188   0.000009
 *** LOAD STEP     1   SUBSTEP     1  COMPLETED.    CUM ITER =      1
 *** TIME =   1.00000         TIME INC =   1.00000      NEW TRIANG MATRIX


 *** ANSYS BINARY FILE STATISTICS
  BUFFER SIZE USED= 16384
        3.812 MB WRITTEN ON ASSEMBLED MATRIX FILE: Main1.full
        6.062 MB WRITTEN ON RESULTS FILE: Main1.rst

 FINISH SOLUTION PROCESSING


 ***** ROUTINE COMPLETED *****  CP =        58.109



 CLEAR DATABASE AND RERUN START.ANS

 ANSYS Mechanical Enterprise                       

 CLEAR DATABASE AND RERUN START.ANS

 ANSYS Mechanical Enterprise                       

 CLEAR DATABASE AND RERUN START.ANS

 ANSYS Mechanical Enterprise                       

 CLEAR DATABASE AND RERUN START.ANS

 ANSYS Mechanical Enterprise                       

 CLEAR DATABASE AND RERUN START.ANS

 ANSYS Mechanical Enterprise                       

 CLEAR DATABASE AND RERUN START.ANS

 ANSYS Mechanical Enterprise                       

 CLEAR DATABASE AND RERUN START.ANS

 ANSYS Mechanical Enterprise                       

 CLEAR DATABASE AND RERUN START.ANS

 ANSYS Mechanical Enterprise                       

 CLEAR DATABASE AND RERUN START.ANS

 ANSYS Mechanical Enterprise                       

 CLEAR DATABASE AND RERUN START.ANS

 ANSYS Mechanical Enterprise                       

 CLEAR DATABASE AND RERUN START.ANS

 ANSYS Mechanical Enterprise                       

 CLEAR DATABASE AND RERUN START.ANS

 ANSYS Mechanical Enterprise                       

 CLEAR DATABASE AND RERUN START.ANS

 ANSYS Mechanical Enterprise                       

 CLEAR DATABASE AND RERUN START.ANS

 ANSYS Mechanical Enterprise                       
